/*---------------------------------------------------------------------------*\
| =========                 |                                                 |
| \\      /  F ield         | OpenFOAM: The Open Source CFD Toolbox           |
|  \\    /   O peration     | Version:  1.0                                   |
|   \\  /    A nd           | Web:      http://www.openfoam.org               |
|    \\/     M anipulation  |                                                 |
\*---------------------------------------------------------------------------*/

FoamFile
{
    version             1.0;
    format              ascii;
    
    root                "";
    case                "";
    instance            "";
    local               "";
    
    class               dictionary;
    object              combustionProperties.cfg;
}

// * * * * * * * * * * * * * * * * * * * * * * * * * * * * * * * * * * * * * //

include "$FOAMX_SYSTEM_CONFIG/dictionaries/combustionProperties/combustionProperties.cfg";

entries
{
	include "$FOAMX_SYSTEM_CONFIG/dictionaries/combustionProperties/laminarFlameSpeedCorrelation.cfg";
	include "$FOAMX_SYSTEM_CONFIG/dictionaries/combustionProperties/fuel.cfg";

	include "$FOAMX_SYSTEM_CONFIG/types/dimensionedScalar/Su.cfg";
	include "$FOAMX_SYSTEM_CONFIG/dictionaries/combustionProperties/SuModel.cfg";
	include "$FOAMX_SYSTEM_CONFIG/types/dimensionedScalar/sigmaExt.cfg";

	include "$FOAMX_SYSTEM_CONFIG/dictionaries/combustionProperties/XiModel.cfg";
	include "$FOAMX_SYSTEM_CONFIG/types/dimensionedScalar/XiCoef.cfg";
	include "$FOAMX_SYSTEM_CONFIG/types/dimensionedScalar/XiShapeCoef.cfg";
	include "$FOAMX_SYSTEM_CONFIG/types/dimensionedScalar/uPrimeCoef.cfg";

	include "$FOAMX_SYSTEM_CONFIG/dictionaries/combustionProperties/GuldersCoeffs.cfg";

	include "$FOAMX_SYSTEM_CONFIG/types/Switch/ignite.cfg";
	include "$FOAMX_SYSTEM_CONFIG/dictionaries/combustionProperties/ignitionSites.cfg";
	
}

include "defaults/combustionProperties.def";

// ************************************************************************* //
