/*---------------------------------------------------------------------------*\
| =========                 |                                                 |
| \\      /  F ield         | OpenFOAM: The Open Source CFD Toolbox           |
|  \\    /   O peration     | Version:  1.0                                   |
|   \\  /    A nd           | Web:      http://www.openfoam.org               |
|    \\/     M anipulation  |                                                 |
\*---------------------------------------------------------------------------*/

FoamFile
{
    version             1.0;
    format              ascii;

    root                "";
    case                "";
    instance            "";
    local               "";
    
    class               dictionary;
    object              fvSchemes.cfg;
}

// * * * * * * * * * * * * * * * * * * * * * * * * * * * * * * * * * * * * * //

include "$FOAMX_SYSTEM_CONFIG/dictionaries/fvSchemes/fvSchemes.cfg";

entries
{
    include "$FOAMX_SYSTEM_CONFIG/dictionaries/fvSchemes/ddt/transient.cfg";

    include "../icoFoam/fvSchemes/gradSchemes.cfg";
    include "../icoFoam/fvSchemes/divSchemes.cfg";
    include "fvSchemes/laplacianSchemes.cfg";
    include "fvSchemes/interpolationSchemes.cfg";
    include "$FOAMX_SYSTEM_CONFIG/dictionaries/fvSchemes/snGrad/defaultOnly.cfg";
    include "$FOAMX_SYSTEM_CONFIG/dictionaries/fvSchemes/flux/p.cfg";
}

include "defaults/fvSchemes.def";

// ************************************************************************* //
