/*---------------------------------------------------------------------------*\
| =========                 |                                                 |
| \\      /  F ield         | OpenFOAM: The Open Source CFD Toolbox           |
|  \\    /   O peration     | Version:  1.0                                   |
|   \\  /    A nd           | Web:      http://www.openfoam.org               |
|    \\/     M anipulation  |                                                 |
\*---------------------------------------------------------------------------*/

FoamFile
{
    version             1.0;
    format              ascii;
    
    root                "";
    case                "";
    instance            "";
    local               "";
    
    class               dictionary;
    object              boundaryFoam.cfg;
}

// * * * * * * * * * * * * * * * * * * * * * * * * * * * * * * * * * * * * * //

description         "Boundary flow code.";

executable          boundaryFoam;

parameters
(
    "Root Path"
    "Case Name"
);

modules
(
    FoamX.Modules.CaseEditor.CaseEditorModule
);

dictionaries
(
    controlDict
    fvSchemes
    fvSolution
    transportProperties
    turbulenceProperties
);

fields
{
    include "$FOAMX_SYSTEM_CONFIG/types/geometricFields/U.cfg";
    include "$FOAMX_SYSTEM_CONFIG/types/geometricFields/k.cfg";
    include "$FOAMX_SYSTEM_CONFIG/types/geometricFields/epsilon.cfg";    
    include "$FOAMX_SYSTEM_CONFIG/types/geometricFields/Rkinematic.cfg";
    include "$FOAMX_SYSTEM_CONFIG/types/geometricFields/nuTilda.cfg";    
}

boundaryTypes
{
    wall
    {
        displayName         "wall";
        description         "Wall boundary condition";
        patchType           wall;
        U                   fixedValue;
        k                   fixedValue;
        epsilon             zeroGradient;
        R                   zeroGradient;
        nuTilda             fixedValue;
    }

    wallFunctions
    {
        displayName         "wallFunctions";
        description         "Wall functions boundary condition";
        patchType           wall;
        U                   fixedValue;
        k                   zeroGradient;
        epsilon             zeroGradient;
        R                   zeroGradient;
        nuTilda             zeroGradient;
    }
}

// ************************************************************************* //
