/*---------------------------------------------------------------------------*\
| =========                 |                                                 |
| \\      /  F ield         | OpenFOAM: The Open Source CFD Toolbox           |
|  \\    /   O peration     | Version:  1.2                                   |
|   \\  /    A nd           | Web:      http://www.openfoam.org               |
|    \\/     M anipulation  |                                                 |
\*---------------------------------------------------------------------------*/

// FoamX Mesh Description File

FoamFile
{
    version         2.0;
    format          ascii;

    root            "/home/dm2/henry/OpenFOAM/OpenFOAM-1.2/tutorialsTest/turbFoam";
    case            "cavity";
    instance        "constant/polyMesh";
    local           "";

    class           polyBoundaryMesh;
    object          boundary;
}

// * * * * * * * * * * * * * * * * * * * * * * * * * * * * * * * * * * * * * //


(
    movingWall
    {
        type            wall;
        physicalType    wallFunctions;
        startFace       760;
        nFaces          20;
    }

    fixedWalls
    {
        type            wall;
        physicalType    wallFunctions;
        startFace       780;
        nFaces          60;
    }

    frontAndBack
    {
        type            empty;
        physicalType    empty;
        startFace       840;
        nFaces          800;
    }

)

// ************************************************************************* //
