// The FOAM Project // File: tetFemTolerances
/*
-------------------------------------------------------------------------------
 =========         | dictionary
 \\      /         | 
  \\    /          | Name:   tetFemTolerances
   \\  /           | Family: FoamX configuration file
    \\/            | 
    F ield         | FOAM version: 2.1
    O peration     | Product of Nabla Ltd.
    A and          | 
    M anipulation  | Email: Enquiries@Nabla.co.uk
-------------------------------------------------------------------------------
*/
// FoamX Case Dictionary.

FoamFile
{
    version         2.0;
    format          ascii;

    root            "/export/warhol/chris/foam/chris2.1/run/tutorials/icoFoamAutoMotion";
    case            "movingCone.new";
    instance        "system";
    local           "";

    class           dictionary;
    form            dictionary;
    object          tetFemTolerances;
}

// * * * * * * * * * * * * * * * * * * * * * * * * * * * * * * * * * * * * * //

toleranceSet    transient;

transient
{
    solverTolerances
    {
        motionU     1e-7;
    }

    solverRelativeTolerances
    {
        motionU     0.0;
    }
}


// ************************************************************************* //
