/*---------------------------------------------------------------------------*\
| =========                 |                                                 |
| \\      /  F ield         | OpenFOAM: The Open Source CFD Toolbox           |
|  \\    /   O peration     | Version:  1.0                                   |
|   \\  /    A nd           | Web:      http://www.openfoam.org               |
|    \\/     M anipulation  |                                                 |
\*---------------------------------------------------------------------------*/

FoamFile
{
    version             1.0;
    format              ascii;
    
    root                "";
    case                "";
    instance            "";
    local               "";
    
    class               dictionary;
    object              combustionProperties.cfg;
}

// * * * * * * * * * * * * * * * * * * * * * * * * * * * * * * * * * * * * * //

include "$FOAMX_SYSTEM_CONFIG/dictionaries/combustionProperties/combustionProperties.cfg";

entries
{
    include "$FOAMX_SYSTEM_CONFIG/types/dimensionedScalar/A.cfg";
    include "$FOAMX_SYSTEM_CONFIG/types/dimensionedScalar/B.cfg";
}

include "defaults/combustionProperties.def";

// ************************************************************************* //
