/*---------------------------------------------------------------------------*\
| =========                 |                                                 |
| \\      /  F ield         | OpenFOAM: The Open Source CFD Toolbox           |
|  \\    /   O peration     | Version:  1.0                                   |
|   \\  /    A nd           | Web:      http://www.openfoam.org               |
|    \\/     M anipulation  |                                                 |
\*---------------------------------------------------------------------------*/

FoamFile
{
    version             1.0;
    format              ascii;
    
    root                "";
    case                "";
    instance            "";
    local               "";
    
    class               dictionary;
    object              spray.cfg;
}

// * * * * * * * * * * * * * * * * * * * * * * * * * * * * * * * * * * * * * //

include "$FOAMX_SYSTEM_CONFIG/dictionaries/spray/spray.cfg";

entries
{
    Cloud<parcel>
    {
        type                list;
        elementType         scalar;
    }    
}

// ************************************************************************* //
