/*---------------------------------------------------------------------------*\
| =========                 |                                                 |
| \\      /  F ield         | OpenFOAM: The Open Source CFD Toolbox           |
|  \\    /   O peration     | Version:  1.0                                   |
|   \\  /    A nd           | Web:      http://www.openfoam.org               |
|    \\/     M anipulation  |                                                 |
\*---------------------------------------------------------------------------*/

FoamFile
{
    version             1.0;
    format              ascii;
    
    root                "";
    case                "";
    instance            "";
local               "";
 
 class               dictionary;
 object              sprayProperties.cfg;
}

// * * * * * * * * * * * * * * * * * * * * * * * * * * * * * * * * * * * * * //

include "$FOAMX_SYSTEM_CONFIG/dictionaries/sprayProperties/sprayProperties.cfg";

entries
{
    include "$FOAMX_SYSTEM_CONFIG/dictionaries/sprayProperties/interpolationSchemes.cfg";
    include "$FOAMX_SYSTEM_CONFIG/dictionaries/sprayProperties/subCycles.cfg";
    include "$FOAMX_SYSTEM_CONFIG/dictionaries/sprayProperties/atomizationModel.cfg";
    include "$FOAMX_SYSTEM_CONFIG/dictionaries/sprayProperties/breakupModel.cfg";
    include "$FOAMX_SYSTEM_CONFIG/dictionaries/sprayProperties/collisionModel.cfg";
    include "$FOAMX_SYSTEM_CONFIG/dictionaries/sprayProperties/evaporationModel.cfg";
    include "$FOAMX_SYSTEM_CONFIG/dictionaries/sprayProperties/heatTransferModel.cfg";
    include "$FOAMX_SYSTEM_CONFIG/dictionaries/sprayProperties/dispersionModel.cfg";
    include "$FOAMX_SYSTEM_CONFIG/dictionaries/sprayProperties/dragModel.cfg";
    include "$FOAMX_SYSTEM_CONFIG/dictionaries/sprayProperties/wallModel.cfg";
    include "$FOAMX_SYSTEM_CONFIG/dictionaries/sprayProperties/specConstAtomizationCoeffs.cfg";
    include "$FOAMX_SYSTEM_CONFIG/dictionaries/sprayProperties/ReitzDiwakarCoeffs.cfg";
    include "$FOAMX_SYSTEM_CONFIG/dictionaries/sprayProperties/ReitzKHRTCoeffs.cfg";
    include "$FOAMX_SYSTEM_CONFIG/dictionaries/sprayProperties/trajectoryCoeffs.cfg";
    include "$FOAMX_SYSTEM_CONFIG/dictionaries/sprayProperties/standardDragModelCoeffs.cfg";
    include "$FOAMX_SYSTEM_CONFIG/dictionaries/sprayProperties/standardEvaporationModelCoeffs.cfg";
    include "$FOAMX_SYSTEM_CONFIG/dictionaries/sprayProperties/RanzMarshallCoeffs.cfg";
    include "$FOAMX_SYSTEM_CONFIG/dictionaries/sprayProperties/reflectCoeffs.cfg";
}

include "defaults/sprayProperties.def";

// ************************************************************************* //
