/*---------------------------------------------------------------------------*\
| =========                 |                                                 |
| \\      /  F ield         | OpenFOAM: The Open Source CFD Toolbox           |
|  \\    /   O peration     | Version:  1.3                                   |
|   \\  /    A nd           | Web:      http://www.openfoam.org               |
|    \\/     M anipulation  |                                                 |
\*---------------------------------------------------------------------------*/

FoamFile
{
    version 2.0;
    format ascii;

    root "/home/dm2/henry/OpenFOAM/OpenFOAM-1.2/tutorials/interFoam";
    case "damBreak/processor2";
    instance ""constant"";
    local "polyMesh";

    class polyBoundaryMesh;
    object boundary;
}

// * * * * * * * * * * * * * * * * * * * * * * * * * * * * * * * * * * * * * //

5
(
leftWall
{
    type wall;
    physicalType wall;
    nFaces 24;
    startFace 1070;
}

atmosphere
{
    type patch;
    physicalType atmosphere;
    nFaces 23;
    startFace 1094;
}

defaultFaces
{
    type empty;
    nFaces 1118;
    startFace 1117;
}

procBoundary2to0
{
    type processor;
    nFaces 24;
    startFace 2235;
    myProcNo 2;
    neighbProcNo 0;
}

procBoundary2to3
{
    type processor;
    nFaces 25;
    startFace 2259;
    myProcNo 2;
    neighbProcNo 3;
}
)

// ************************************************************************* //
