/*---------------------------------------------------------------------------*\
| =========                 |                                                 |
| \\      /  F ield         | OpenFOAM: The Open Source CFD Toolbox           |
|  \\    /   O peration     | Version:  1.0                                   |
|   \\  /    A nd           | Web:      http://www.openfoam.org               |
|    \\/     M anipulation  |                                                 |
\*---------------------------------------------------------------------------*/

FoamFile
{
    version         2.0;
    format          ascii;

    root            "";
    case            "";
    instance        "";
    local           "";

    class           dictionary;
    object          controlDict;
}

// * * * * * * * * * * * * * * * * * * * * * * * * * * * * * * * * * * * * * //

applicationClass dieselFoam;

startFrom        startTime;

startTime        0;

stopAt           endTime;

endTime          0.01;

deltaT           2.5e-06;

writeControl     adjustableRunTime;

writeInterval    5.0e-5;

cycleWrite       0;

writeFormat      binary;

writePrecision   6;

writeCompression uncompressed;

timeFormat       general;

timePrecision    6;

adjustTimeStep   yes;

maxCo            0.1;


// ************************************************************************* //
