/*---------------------------------------------------------------------------*\
| =========                 |                                                 |
| \\      /  F ield         | OpenFOAM: The Open Source CFD Toolbox           |
|  \\    /   O peration     | Version:  1.0                                   |
|   \\  /    A nd           | Web:      http://www.openfoam.org               |
|    \\/     M anipulation  |                                                 |
\*---------------------------------------------------------------------------*/

FoamFile
{
    version  1.0;
    format   ascii;

    root     "";
    case     "";
    instance "";
    local    "";

    class    dictionary;
    object   FoamX.cfg;
}

// * * * * * * * * * * * * * * * * * * * * * * * * * * * * * * * * * * * * * //

availableModules
(
    FoamX.Modules.CaseEditor.CaseEditorModule
);

processControl
{
    remoteShell  "ssh";
    timeOut      60;        // Maximum time (in seconds) command can take
}

// ************************************************************************* //
