/*---------------------------------------------------------------------------*\
| =========                 |                                                 |
| \\      /  F ield         | OpenFOAM: The Open Source CFD Toolbox           |
|  \\    /   O peration     | Version:  1.0                                   |
|   \\  /    A nd           | Web:      http://www.openfoam.org               |
|    \\/     M anipulation  |                                                 |
\*---------------------------------------------------------------------------*/

FoamFile
{
    version             1.0;
    format              ascii;

    root                "";
    case                "";
    instance            "";
    local               "";
    
    class               dictionary;
    object              fvSolution.cfg;
}

// * * * * * * * * * * * * * * * * * * * * * * * * * * * * * * * * * * * * * //

include "$FOAMX_SYSTEM_CONFIG/dictionaries/fvSolution/fvSolution.cfg";

entries
{
    solvers
    {
        type        dictionary;
        entries
        {
            include "$FOAMX_SYSTEM_CONFIG/dictionaries/fvSolution/solvers/pcorr.cfg";
            include "$FOAMX_SYSTEM_CONFIG/dictionaries/fvSolution/solvers/pd.cfg";
            include "$FOAMX_SYSTEM_CONFIG/dictionaries/fvSolution/solvers/gamma.cfg";
            include "$FOAMX_SYSTEM_CONFIG/dictionaries/fvSolution/solvers/U.cfg";
            include "$FOAMX_SYSTEM_CONFIG/dictionaries/fvSolution/solvers/k.cfg";
            include "$FOAMX_SYSTEM_CONFIG/dictionaries/fvSolution/solvers/B.cfg";
            include "$FOAMX_SYSTEM_CONFIG/dictionaries/fvSolution/solvers/nuTilda.cfg";
        }
    }

    PISO
    {
        type        dictionary;
        entries
        {
            include "$FOAMX_SYSTEM_CONFIG/types/label/nCorrectors.cfg";
            include "$FOAMX_SYSTEM_CONFIG/types/label/nNonOrthogonalCorrectors.cfg";
            include "$FOAMX_SYSTEM_CONFIG/types/label/nGammaCorr.cfg";
            include "$FOAMX_SYSTEM_CONFIG/types/label/nGammaSubCycles.cfg";
            include "$FOAMX_SYSTEM_CONFIG/types/scalar/cGamma.cfg";
        }
    }
}

include "defaults/fvSolution.def";

// ************************************************************************* //
