/*---------------------------------------------------------------------------*\
| =========                 |                                                 |
| \\      /  F ield         | OpenFOAM: The Open Source CFD Toolbox           |
|  \\    /   O peration     | Version:  1.0                                   |
|   \\  /    A nd           | Web:      http://www.openfoam.org               |
|    \\/     M anipulation  |                                                 |
\*---------------------------------------------------------------------------*/

FoamFile
{
    version  1.0;
    format   ascii;

    root     "";
    case     "";
    instance "";
    local    "";

    class    dictionary;
    object   geometries.cfg;
}

// * * * * * * * * * * * * * * * * * * * * * * * * * * * * * * * * * * * * * //
// Geometry type definitions.

vol
{
    displayName     "vol";
    description     "Finite volume cells";
}

surface
{
    displayName     "surface";
    description     "Finite volume faces";
}

point
{
    displayName     "point";
    description     "Finite element points";
}

tetPoint
{
    displayName     "tetPoint";
    description     "Tet element points";
}

// ************************************************************************* //
