/*---------------------------------------------------------------------------*\
| =========                 |                                                 |
| \\      /  F ield         | OpenFOAM: The Open Source CFD Toolbox           |
|  \\    /   O peration     | Version:  1.0                                   |
|   \\  /    A nd           | Web:      http://www.openfoam.org               |
|    \\/     M anipulation  |                                                 |
\*---------------------------------------------------------------------------*/

FoamFile
{
    version  1.0;
    format   ascii;

    root     "";
    case     "";
    instance "";
    local    "";

    class    dictionary;
    object   patchFields.cfg;
}

// * * * * * * * * * * * * * * * * * * * * * * * * * * * * * * * * * * * * * //

include "patchFields/geometric.cfg";
include "patchFields/basic.cfg";
include "patchFields/cfd.cfg";
include "patchFields/stressAnalysis.cfg";
include "patchFields/meshMotion.cfg";
include "patchFields/miscellaneous.cfg";
                  
// ************************************************************************* //
