/*---------------------------------------------------------------------------*\
| =========                 |                                                 |
| \\      /  F ield         | OpenFOAM: The Open Source CFD Toolbox           |
|  \\    /   O peration     | Version:  1.0                                   |
|   \\  /    A nd           | Web:      http://www.openfoam.org               |
|    \\/     M anipulation  |                                                 |
\*---------------------------------------------------------------------------*/
// Foam type Definitions.

FoamFile
{
    version  1.0;
    format   ascii;

    root     "";
    case     "";
    instance "";
    local    "";

    class    dictionary;
    object   types.cfg;
}


// * * * * * * * * * * * * * * * * * * * * * * * * * * * * * * * * * * * * * //


include "scalar/scalar.cfg";
include "scalar01/scalar01.cfg";
include "scalar0Inf/scalar0Inf.cfg";
include "vector/vector.cfg";
include "tensor/tensor.cfg";
include "fields/fields.cfg";
include "Switch/boolean.cfg";
include "Switch/Switch.cfg";

model
{
    type                word;
    iconURL             "/FoamX/icons/small/maths/Model.gif";
}

stringList
{
    type        list;
    elementType string;
}

include "dimensionedScalar/dimensionedScalar.cfg";
include "dimensionedVector/dimensionedVector.cfg";

patchField
{
    displayName         "Patch Field";
    description         "Patch Field";
    type                dictionary;
    entries
    {
        type
        {
            type         word;
            default      patchField;
            editable     0;
            visible      0;
        }
    }
}

include "finiteVolume/Gauss.cfg";
include "interpolations/interpolations.cfg";

include "label/xyzAxisLabel.cfg";

include "$FOAMX_SYSTEM_CONFIG/dictionaries/injectorProperties/injector.cfg";
include "$FOAMX_SYSTEM_CONFIG/dictionaries/injectorProperties/timeDistance.cfg";
include "$FOAMX_SYSTEM_CONFIG/dictionaries/combustionProperties/ignitionSite.cfg";
include "$FOAMX_SYSTEM_CONFIG/dictionaries/blockMeshDict/block.cfg";
include "$FOAMX_SYSTEM_CONFIG/dictionaries/blockMeshDict/patch.cfg";
include "$FOAMX_SYSTEM_CONFIG/dictionaries/blockMeshDict/quad.cfg";
include "$FOAMX_SYSTEM_CONFIG/dictionaries/blockMeshDict/edge.cfg";
include "$FOAMX_SYSTEM_CONFIG/dictionaries/blockMeshDict/patchPair.cfg";
include "$FOAMX_SYSTEM_CONFIG/dictionaries/mapFieldsDict/patchMapping.cfg";
include "$FOAMX_SYSTEM_CONFIG/dictionaries/sampleDict/sampleSet.cfg";
include "$FOAMX_SYSTEM_CONFIG/dictionaries/cellSetDict/boxToCell.cfg";
//include "$FOAMX_SYSTEM_CONFIG/dictionaries/sampleDict/vectorFieldSample.cfg";
//include "$FOAMX_SYSTEM_CONFIG/dictionaries/sampleDict/tensorFieldSample.cfg";

// ************************************************************************* //
