/*---------------------------------------------------------------------------*\
| =========                 |                                                 |
| \\      /  F ield         | OpenFOAM: The Open Source CFD Toolbox           |
|  \\    /   O peration     | Version:  1.0                                   |
|   \\  /    A nd           | Web:      http://www.openfoam.org               |
|    \\/     M anipulation  |                                                 |
\*---------------------------------------------------------------------------*/

FoamFile
{
    version         2.0;
    format          ascii;

    root            "";
    case            "";
    instance        "";
    local           "";

    class           dictionary;
    object          planeToPatchDict;
}

// * * * * * * * * * * * * * * * * * * * * * * * * * * * * * * * * * * * * * //

mappingPlane    no;

Ubar            Ubar [0 1 -1 0 0 0 0] (51.111111 0 0);

targetPatchName inlet;

planeType       pointAndNormal;

pointAndNormalDict
{
    basePoint       (-0.00142 0 0);
    normalVector    (1 0 0);
}


// ************************************************************************* //
