/*---------------------------------------------------------------------------*\
| =========                 |                                                 |
| \\      /  F ield         | OpenFOAM: The Open Source CFD Toolbox           |
|  \\    /   O peration     | Version:  1.0                                   |
|   \\  /    A nd           | Web:      http://www.openfoam.org               |
|    \\/     M anipulation  |                                                 |
\*---------------------------------------------------------------------------*/

FoamFile
{
    version         2.0;
    format          ascii;

    root            "";
    case            "";
    instance        "";
    local           "";

    class           dictionary;
    object          fvSchemes;
}

// * * * * * * * * * * * * * * * * * * * * * * * * * * * * * * * * * * * * * //

ddtSchemes
{
    default backward;
}

gradSchemes
{
    default         Gauss linear;
    grad(p)         Gauss linear;
    grad(U)         Gauss linear;
}

divSchemes
{
    default         none;
    div(phi,U)      Gauss linear;
    div(phi,h)      Gauss linear;
    div(phiU,p)     Gauss linear;
    div(phi,k)      Gauss linear;
    div(phi,B)      Gauss linear;
    div(B)          Gauss linear;
    div(phi,muTilda) Gauss linear;
    div((muEff*dev2(grad(U).T()))) Gauss linear;
}

laplacianSchemes
{
    default         none;
    laplacian(muEff,U) Gauss linear corrected;
    laplacian((rho|A(U)),p) Gauss linear corrected;
    laplacian(alphaEff,h) Gauss linear corrected;
    laplacian(DkEff,k) Gauss linear limited 0.5;
    laplacian(DBEff,B) Gauss linear limited 0.5;
    laplacian(DmuTildaEff,muTilda) Gauss linear limited 0.5;
}

interpolationSchemes
{
    default         linear;
    interpolate(HbyA) linear;
}

snGradSchemes
{
    default         corrected;
}

fluxRequired
{
    default         no;
    p;
}


// ************************************************************************* //
