/*---------------------------------------------------------------------------*\
| =========                 |                                                 |
| \\      /  F ield         | OpenFOAM: The Open Source CFD Toolbox           |
|  \\    /   O peration     | Version:  1.0                                   |
|   \\  /    A nd           | Web:      http://www.openfoam.org               |
|    \\/     M anipulation  |                                                 |
\*---------------------------------------------------------------------------*/

FoamFile
{
    version             1.0;
    format              ascii;

    root                "";
    case                "";
    instance            "";
    local               "";
    
    class               dictionary;
    object              fvSchemes.cfg;
}

// * * * * * * * * * * * * * * * * * * * * * * * * * * * * * * * * * * * * * //

include "$FOAMX_SYSTEM_CONFIG/dictionaries/fvSchemes/fvSchemes.cfg";

entries
{
    include "$FOAMX_SYSTEM_CONFIG/dictionaries/fvSchemes/ddt/steady.cfg";

    include "../turbFoam/fvSchemes/gradSchemes.cfg";
    include "../turbFoam/fvSchemes/divSchemes.cfg";
    include "../turbFoam/fvSchemes/laplacianSchemes.cfg";
    include "../turbFoam/fvSchemes/interpolationSchemes.cfg";
    include "$FOAMX_SYSTEM_CONFIG/dictionaries/fvSchemes/snGrad/defaultOnly.cfg";

    include "$FOAMX_SYSTEM_CONFIG/dictionaries/fvSchemes/flux/p.cfg"; 
}

include "defaults/fvSchemes.def";

// ************************************************************************* //
