/*---------------------------------------------------------------------------*\
| =========                 |                                                 |
| \\      /  F ield         | OpenFOAM: The Open Source CFD Toolbox           |
|  \\    /   O peration     | Version:  1.3                                   |
|   \\  /    A nd           | Web:      http://www.openfoam.org               |
|    \\/     M anipulation  |                                                 |
\*---------------------------------------------------------------------------*/

FoamFile
{
    version 2.0;
    format ascii;

    root "/home/dm2/henry/OpenFOAM/OpenFOAM-1.2/tutorials/interFoam";
    case "damBreak/processor1";
    instance ""constant"";
    local "polyMesh";

    class polyBoundaryMesh;
    object boundary;
}

// * * * * * * * * * * * * * * * * * * * * * * * * * * * * * * * * * * * * * //

5
(
rightWall
{
    type wall;
    physicalType wall;
    nFaces 25;
    startFace 1061;
}

lowerWall
{
    type wall;
    physicalType wall;
    nFaces 40;
    startFace 1086;
}

defaultFaces
{
    type empty;
    nFaces 1118;
    startFace 1126;
}

procBoundary1to0
{
    type processor;
    nFaces 26;
    startFace 2244;
    myProcNo 1;
    neighbProcNo 0;
}

procBoundary1to3
{
    type processor;
    nFaces 23;
    startFace 2270;
    myProcNo 1;
    neighbProcNo 3;
}
)

// ************************************************************************* //
