/*----------------------------------------------------------------------------*\
  =========                 |
  \\      /  F ield         | OpenFOAM: The Open Source CFD Toolbox
   \\    /   O peration     |
    \\  /    A nd           | Copyright (C) 1991-2005 OpenCFD Ltd.
     \\/     M anipulation  |
-------------------------------------------------------------------------------
License
    This file is part of OpenFOAM.

    OpenFOAM is free software; you can redistribute it and/or modify it
    under the terms of the GNU General Public License as published by the
    Free Software Foundation; either version 2 of the License, or (at your
    option) any later version.

    OpenFOAM is distributed in the hope that it will be useful, but WITHOUT
    ANY WARRANTY; without even the implied warranty of MERCHANTABILITY or
    FITNESS FOR A PARTICULAR PURPOSE.  See the GNU General Public License
    for more details.

    You should have received a copy of the GNU General Public License
    along with OpenFOAM; if not, write to the Free Software Foundation,
    Inc., 59 Temple Place, Suite 330, Boston, MA 02111-1307 USA

Dictionary
    controlDict

Description

\*----------------------------------------------------------------------------*/

FoamFile
{
    version  2.0;
    format   ascii;

    root     "";
    case     "";
    local    "";

    class    dictionary;
    object   controlDict;
}

// * * * * * * * * * * * * * * * * * * * * * * * * * * * * * * * * * * * * * //

hosts
(
);

caseRoots
(
    "."
    "$FOAM_RUN/tutorials/boundaryFoam"
    "$FOAM_RUN/tutorials/bubbleFoam"
    "$FOAM_RUN/tutorials/buoyantFoam"
    "$FOAM_RUN/tutorials/buoyantSimpleFoam"
    "$FOAM_RUN/tutorials/channelOodles"
    "$FOAM_RUN/tutorials/contactStressFoam"
    "$FOAM_RUN/tutorials/dieselFoam"
    "$FOAM_RUN/tutorials/dnsFoam"
    "$FOAM_RUN/tutorials/electrostaticFoam"
    "$FOAM_RUN/tutorials/engineFoam"
    "$FOAM_RUN/tutorials/financialFoam"
    "$FOAM_RUN/tutorials/icoFoam"
    "$FOAM_RUN/tutorials/icoTopoFoam"
    "$FOAM_RUN/tutorials/icoFoamAutoMotion"
    "$FOAM_RUN/tutorials/interFoam"
    "$FOAM_RUN/tutorials/laplacianFoam"
    "$FOAM_RUN/tutorials/lesInterFoam"
    "$FOAM_RUN/tutorials/mhdFoam"
    "$FOAM_RUN/tutorials/nonNewtonianIcoFoam"
    "$FOAM_RUN/tutorials/oodles"
    "$FOAM_RUN/tutorials/potentialFoam"
    "$FOAM_RUN/tutorials/rasInterFoam"
    "$FOAM_RUN/tutorials/rhoSonicFoam"
    "$FOAM_RUN/tutorials/rhopSonicFoam"
    "$FOAM_RUN/tutorials/scalarTransportFoam"
    "$FOAM_RUN/tutorials/settlingFoam"
    "$FOAM_RUN/tutorials/simpleFoam"
    "$FOAM_RUN/tutorials/sonicFoam"
    "$FOAM_RUN/tutorials/sonicLiquidFoam"
    "$FOAM_RUN/tutorials/sonicTurbFoam"
    "$FOAM_RUN/tutorials/stressFemFoam"
    "$FOAM_RUN/tutorials/stressedFoam"
    "$FOAM_RUN/tutorials/turbFoam"
    "$FOAM_RUN/tutorials/XiFoam"
    "$FOAM_RUN/tutorials/Xoodles"
);


DebugSwitches
{
    level              2;
    FoamX              0;

    IOobject           0;
    regIOobject        0;
    unix               0;
    licence            0;

    database           0;
    entry              0;
    dictionary         0;
    cellModeller       0;
    mesh               0;

    hashTable          0;

    lduMatrix          1;

    vector             0; 
    dimensionSet       1;
    basicMesh          0; 
    fvMesh             0; 
    fvMatrix           0;
    fvSchemes          0;
    fvSolution         0;
    finiteVolume       0;
    interpolations     0; 
    dimensionedTypes   0; 
    fields             0; 
    patchFields        0; 
    geometricFields    0;
    thermo             0;

    tetPolyMesh        0;
    tetPolyPatchFields 0;
    tetFemMatrix       0;

    polyMeshMorph      0;

    surfaceInterpolation 0;
}

InfoSwitches
{
    writeJobInfo         0;
    FoamXwriteComments   1;
}

OptimisationSwitches
{
    fileModificationSkew 10;
    scheduledTransfer    1;
    floatTransfer        0;
    nProcsSimpleSum      16;
}

// ************************************************************************* //
