/*---------------------------------------------------------------------------*\
| =========                 |                                                 |
| \\      /  F ield         | OpenFOAM: The Open Source CFD Toolbox           |
|  \\    /   O peration     | Version:  1.0                                   |
|   \\  /    A nd           | Web:      http://www.openfoam.org               |
|    \\/     M anipulation  |                                                 |
\*---------------------------------------------------------------------------*/

FoamFile
{
    version             1.0;
    format              ascii;
    
    root                "";
    case                "";
    instance            "";
    local               "";
    
    class               dictionary;
    object              mechanicalProperties.cfg;
}

// * * * * * * * * * * * * * * * * * * * * * * * * * * * * * * * * * * * * * //

include "$FOAMX_SYSTEM_CONFIG/dictionaries/mechanicalProperties/mechanicalProperties.cfg";

entries            
{
    include "$FOAMX_SYSTEM_CONFIG/types/dimensionedScalar/rho.cfg";
    include "$FOAMX_SYSTEM_CONFIG/types/dimensionedScalar/nu.cfg";
    include "$FOAMX_SYSTEM_CONFIG/types/dimensionedScalar/E.cfg";
    include "$FOAMX_SYSTEM_CONFIG/types/Switch/planeStress.cfg";
}

include "defaults/mechanicalProperties.def";

// ************************************************************************* //
