/*---------------------------------------------------------------------------*\
| =========                 |                                                 |
| \\      /  F ield         | OpenFOAM: The Open Source CFD Toolbox           |
|  \\    /   O peration     | Version:  1.3                                   |
|   \\  /    A nd           | Web:      http://www.openfoam.org               |
|    \\/     M anipulation  |                                                 |
\*---------------------------------------------------------------------------*/

FoamFile
{
    version 2.0;
    format ascii;

    root "/home/dm2/henry/OpenFOAM/OpenFOAM-1.2/tutorials/interFoam";
    case "damBreak/processor3";
    instance ""constant"";
    local "polyMesh";

    class dictionary;
    object parallelData;
}

// * * * * * * * * * * * * * * * * * * * * * * * * * * * * * * * * * * * * * //

cyclicParallel  off;
nTotalPoints    4746;
nTotalFaces     9176;
nTotalCells     2268;
nGlobalPoints   2;
sharedPointLabels 2 ( 0 26 );
sharedPointAddr 2 ( 0 1 );
sharedPointGlobalLabels 2 ( 1199 2207 );


// ************************************************************************* //
