/*---------------------------------------------------------------------------*\
| =========                 |                                                 |
| \\      /  F ield         | OpenFOAM: The Open Source CFD Toolbox           |
|  \\    /   O peration     | Version:  1.1.1                                 |
|   \\  /    A nd           | Web:      http://www.openfoam.org               |
|    \\/     M anipulation  |                                                 |
\*---------------------------------------------------------------------------*/

// Foam Dictionary.

FoamFile
{
    version         2.0;
    format          ascii;

    root            "";
    case            "";
    instance        "";
    local           "";

    class           dictionary;
    object          controlDict;
}

// * * * * * * * * * * * * * * * * * * * * * * * * * * * * * * * * * * * * * //

hosts           
(
);

caseRoots       
(
    "."
    "$FOAM_RUN/tutorials/boundaryFoam"
    "$FOAM_RUN/tutorials/bubbleFoam"
    "$FOAM_RUN/tutorials/buoyantFoam"
    "$FOAM_RUN/tutorials/buoyantSimpleFoam"
    "$FOAM_RUN/tutorials/channelOodles"
    "$FOAM_RUN/tutorials/contactStressFoam"
    "$FOAM_RUN/tutorials/dieselFoam"
    "$FOAM_RUN/tutorials/dnsFoam"
    "$FOAM_RUN/tutorials/electrostaticFoam"
    "$FOAM_RUN/tutorials/engineFoam"
    "$FOAM_RUN/tutorials/financialFoam"
    "$FOAM_RUN/tutorials/icoFoam"
    "$FOAM_RUN/tutorials/icoTopoFoam"
    "$FOAM_RUN/tutorials/icoFoamAutoMotion"
    "$FOAM_RUN/tutorials/interFoam"
    "$FOAM_RUN/tutorials/laplacianFoam"
    "$FOAM_RUN/tutorials/lesInterFoam"
    "$FOAM_RUN/tutorials/mhdFoam"
    "$FOAM_RUN/tutorials/nonNewtonianIcoFoam"
    "$FOAM_RUN/tutorials/oodles"
    "$FOAM_RUN/tutorials/potentialFoam"
    "$FOAM_RUN/tutorials/rasInterFoam"
    "$FOAM_RUN/tutorials/rhoSonicFoam"
    "$FOAM_RUN/tutorials/rhopSonicFoam"
    "$FOAM_RUN/tutorials/scalarTransportFoam"
    "$FOAM_RUN/tutorials/settlingFoam"
    "$FOAM_RUN/tutorials/simpleFoam"
    "$FOAM_RUN/tutorials/sonicFoam"
    "$FOAM_RUN/tutorials/sonicLiquidFoam"
    "$FOAM_RUN/tutorials/sonicTurbFoam"
    "$FOAM_RUN/tutorials/stressFemFoam"
    "$FOAM_RUN/tutorials/stressedFoam"
    "$FOAM_RUN/tutorials/turbFoam"
    "$FOAM_RUN/tutorials/XiFoam"
    "$FOAM_RUN/tutorials/Xoodles"
);

DebugSwitches
{
    AMG             2;
    APIdiffCoefFunc 0;
    Ar              0;
    BDCG            0;
    BICCG           0;
    BirdCarreau     0;
    C10H22          0;
    C12H26          0;
    C13H28          0;
    C14H30          0;
    C16H34          0;
    C2H5OH          0;
    C2H6            0;
    C2H6O           0;
    C3H6O           0;
    C3H8            0;
    C4H10O          0;
    C6H14           0;
    C6H6            0;
    C7H16           0;
    C7H8            0;
    C8H10           0;
    C8H18           0;
    C9H20           0;
    CH3OH           0;
    Cartesian       0;
    ChomiakInjector 0;
    Cloud           0;
    CoGamma2        0;
    CrankNicholson  0;
    CrossPowerLaw   0;
    DCG             0;
    DeardorffDiffStress 0;
    ETAB            0;
    Euler           0;
    FoamX           0;
    FoamXError      0;
    Gamma           0;
    Gamma01         0;
    Gamma2          0;
    Gamma201        0;
    Gamma2Limit     0;
    Gamma2V         0;
    GammaLimit      0;
    GammaV          0;
    Gauss           0;
    GaussSeidel     0;
    Gulders         0;
    H2O             0;
    HashTable       0;
    IC8H18          0;
    ICCG            0;
    IDEA            0;
    IFstream        0;
    IOobject        0;
    IOptrList<injector> 0;
    KRR4            0;
    LESdelta        0;
    LESfilter       0;
    LESmodel        0;
    LISA            0;
    LRR             0;
    LRRDiffStress   0;
    LamBremhorstKE  0;
    LaunderGibsonRSTM 0;
    LaunderSharmaKE 0;
    LienCubicKE     0;
    LienCubicKELowRe 0;
    LienLeschzinerLowRe 0;
    MUSCL           0;
    N2              0;
    NSRDSfunc0      0;
    NSRDSfunc1      0;
    NSRDSfunc14     0;
    NSRDSfunc2      0;
    NSRDSfunc3      0;
    NSRDSfunc4      0;
    NSRDSfunc5      0;
    NSRDSfunc6      0;
    NSRDSfunc7      0;
    Newtonian       0;
    NonlinearKEShih 0;
    ODESolver       0;
    OFstream        0;
    ORourke         0;
    PackedList      0;
    ParSortableList 0;
    PatchToPatchInterpolation 0;
    Phi             0;
    PointEdgeWave   0;
    PointPatchField 0;
    Prandtl         0;
    PrimitivePatch  0;
    Pstream         0;
    QUICK           0;
    QZeta           0;
    RK              0;
    RNGkEpsilon     0;
    RanzMarshall    0;
    ReitzDiwakar    0;
    ReitzKHRT       0;
    RosinRammler    0;
    RutlandFlashBoil 0;
    SFCD            0;
    SHF             0;
    SIBS            0;
    Smagorinsky     0;
    Smagorinsky2    0;
    SpalartAllmaras 0;
    SuperBee        0;
    TAB             0;
    UMIST           0;
    Unix            0;
    aC11H10         0;
    addCell         0;
    addFace         0;
    addPoint        0;
    amgCoupledInterface 0;
    anisotropic     0;
    areaScalarField 0;
    areaTensorField 0;
    areaVectorField 0;
    atomizationModel 0;
    attachDetach    0;
    bC11H10         0;
    backward        0;
    basePatch       0;
    basicMesh       0;
    basicMixture    0;
    basicThermo     0;
    blended         0;
    blobsSheetAtomization 0;
    blobsSwirlInjector 0;
    booleanSurface  0;
    boundaryMesh    0;
    bounded         0;
    boundedBackward 0;
    boxToCell       0;
    boxToFace       0;
    boxToPoint      0;
    breakupModel    0;
    calculated      0;
    cell            0;
    cellClassification 0;
    cellCuts        0;
    cellDistFuncs   0;
    cellList        0;
    cellLooper      0;
    cellModeller    0;
    cellPoint       0;
    cellPointFace   0;
    cellSet         0;
    cellToCell      0;
    cellToFace      0;
    cellToPoint     0;
    cellZone        0;
    chemistryReader 0;
    chemkinReader   0;
    collisionModel  0;
    commonRailInjector 0;
    componentMixed  0;
    compound        0;
    const           0;
    constInjector   0;
    constant        0;
    coordinateSystem 0;
    corrected       0;
    coupled         0;
    cubeRootVol     0;
    cubic           0;
    cubicCorrection 0;
    cyclic          0;
    cyclicLduCoupledInterface 0;
    cylindrical     0;
    database        0;
    default         0;
    definedHollowConeInjector 0;
    definedInjector 0;
    definedPressureSwirlInjector 0;
    deformationEnergy 0;
    diagonalSolver  0;
    dictionary      0;
    dimensionSet    1;
    dimensionedTypes 0;
    directPolyTopoChange 0;
    directionMixed  0;
    dispersionLESModel 0;
    dispersionModel 0;
    dispersionRASModel 0;
    distortionEnergy 0;
    downwind        0;
    dragModel       0;
    dynMixedSmagorinsky 0;
    dynOneEqEddy    0;
    dynSmagorinsky  0;
    edgeInterpolation 0;
    edgeIntersections 0;
    edgeList        0;
    edgeScalarField 0;
    edgeSurface     0;
    edgeTensorField 0;
    edgeVectorField 0;
    elementScalarField 0;
    elementTensorField 0;
    elementVectorField 0;
    empty           0;
    enrichedPatch   0;
    entry           0;
    evaporationModel 0;
    exponential     0;
    fa              0;
    faBoundaryMesh  0;
    faMesh          0;
    faPatchField    0;
    faScalarMatrix  0;
    faSchemes       0;
    faTensorMatrix  0;
    faVectorMatrix  0;
    faceList        0;
    faceSet         0;
    faceToCell      0;
    faceToFace      0;
    faceToPoint     0;
    faceZone        0;
    fastLduTriLookup 0;
    features        0;
    fieldToCell     0;
    fields          0;
    file            0;
    finiteVolume    0;
    fixedEnthalpy   0;
    fixedFluxPressure 0;
    fixedGradient   0;
    fixedUnburntEnthalpy 0;
    fixedValue      0;
    fixedValueOutflow 0;
    fluxCorrectedVelocity 0;
    foamChemistryReader 0;
    fourth          0;
    freestream      0;
    freestreamPressure 0;
    fv              0;
    fvMatrix        0;
    fvMesh          0;
    fvPatchField    0;
    fvScalarMatrix  0;
    fvSchemes       0;
    fvSolution      0;
    fvTensorMatrix  0;
    fvVectorMatrix  0;
    general         0;
    geomCellLooper  0;
    geometricFields 0;
    geometricSurfacePatch 0;
    globalPoints    0;
    globalProcessor 0;
    gnuplot         0;
    gradientDispersionRAS 0;
    gradientEnthalpy 0;
    gradientUnburntEnthalpy 0;
    hCombustionThermo 0;
    harmonic        0;
    hashTable       0;
    heatTransferModel 0;
    hexCellLooper   0;
    hexRef8         0;
    hhuCombustionThermo 0;
    hollowConeInjector 0;
    indexedParticle 0;
    injectorModel   0;
    injectorType    0;
    inletOutlet     0;
    interpolations  0;
    intersectedSurface 0;
    inverseLinear   0;
    jplot           0;
    kEpsilon        0;
    labelField      0;
    labelList       0;
    labelListList   0;
    labelToCell     0;
    labelToFace     0;
    labelToPoint    0;
    laminar         0;
    laminarFlameSpeed 0;
    laplace         0;
    layerAdditionRemoval 0;
    lduCoupledInterface 0;
    lduMatrix       1;
    leastSquares    0;
    leastSquaresVectors 0;
    level           2;
    licence         0;
    limited         0;
    limitedCubic    0;
    linear          0;
    linearUpwind    0;
    liquid          0;
    locDynOneEqEddy 0;
    localBlended    0;
    lowReOneEqEddy  0;
    mesh            0;
    meshCutAndRemove 0;
    meshCutter      0;
    meshModifier    0;
    meshMorphEngine 0;
    meshSearch      0;
    meshToMesh      0;
    meshWave        0;
    minMod          0;
    mixed           0;
    mixedEnthalpy   0;
    mixedSmagorinsky 0;
    mixedUnburntEnthalpy 0;
    modifyCell      0;
    modifyFace      0;
    modifyPoint     0;
    motionDiff      0;
    motionSmoother  0;
    motionSolver    0;
    movingWallVelocity 0;
    muSgsWallFunction 0;
    multiDirRefinement 0;
    multivariateSelection 0;
    nbrToCell       0;
    nearestToCell   0;
    noDragModel     0;
    normal          0;
    normalToFace    0;
    nuSgsWallFunction 0;
    objectRegistry  0;
    octree          0;
    octreeDataEdges 0;
    octreeDataFace  0;
    octreeDataFaceList 0;
    octreeDataTriSurface 0;
    off             0;
    oneEqEddy       0;
    orientedSurface 0;
    oscillatingFixedValue 0;
    outletInlet     0;
    parabolicCylindrical 0;
    parallelInfo    0;
    parcel          0;
    partialSlip     0;
    passiveParticle 0;
    patch           0;
    patchEnhanced   0;
    patchFields     0;
    patchToFace     0;
    patchZones      0;
    pdf             0;
    perfectInterface 0;
    pointScalarField 0;
    pointSet        0;
    pointTensorField 0;
    pointToCell     0;
    pointToFace     0;
    pointToPoint    0;
    pointVectorField 0;
    pointZone       0;
    polyBoundaryMesh 0;
    polyMesh        0;
    polyMeshMorph   0;
    pressureDirectedInletOutletVelocity 0;
    pressureDirectedInletVelocity 0;
    pressureInletOutletVelocity 0;
    pressureInletVelocity 0;
    pressureSwirlInjector 0;
    pressureTransmissive 0;
    primitiveMesh   0;
    processor       0;
    processorLduCoupledInterface 0;
    pseudoSolid     0;
    quadratic       0;
    raw             0;
    reaction        0;
    realizableKE    0;
    refinementIterator 0;
    reflect         0;
    regIOobject     0;
    remove          0;
    removeCell      0;
    removeCells     0;
    removeFace      0;
    removeFaces     0;
    removePoint     0;
    repatchPolyMesh 0;
    rhoMUSCL        0;
    rotatedBoxToCell 0;
    saturateEvaporationModel 0;
    scalarField     0;
    scaleSimilarity 0;
    setUpdater      0;
    shapeList       0;
    shapeToCell     0;
    simple          0;
    skewCorrectionVectors 0;
    skewLinear      0;
    slidingInterface 0;
    slip            0;
    smooth          0;
    solution        0;
    spectEddyVisc   0;
    spherical       0;
    standardDragModel 0;
    standardEvaporationModel 0;
    steadyState     0;
    stochasticDispersionRAS 0;
    supersonicFreestream 0;
    surfaceInterpolation 0;
    surfaceInterpolationScheme 0;
    surfaceIntersection 0;
    surfaceNormalFixedValue 0;
    surfacePatch    0;
    surfacePatchIOList 0;
    surfaceScalarField 0;
    surfaceSnap     0;
    surfaceTensorField 0;
    surfaceToCell   0;
    surfaceToPoint  0;
    surfaceVectorField 0;
    swirlInjector   0;
    symmetryPlane   0;
    tensorField     0;
    tetFemMatrix    0;
    tetFemScalarMatrix 0;
    tetFemTensorMatrix 0;
    tetFemVectorMatrix 0;
    tetPointScalarField 0;
    tetPointTensorField 0;
    tetPointVectorField 0;
    tetPolyMesh     0;
    tetPolyPatchFields 0;
    thermo          0;
    thermophysicalFunction 0;
    time            0;
    timeVaryingUniformFixedValue 0;
    timer           0;
    topoAction      0;
    topoCellLooper  0;
    topoSet         0;
    topoSetSource   0;
    toroidal        0;
    totalPressure   0;
    trajectory      0;
    transform       0;
    transportModel  0;
    treeLeaf        0;
    treeNode        0;
    triSurface      0;
    turbulenceModel 0;
    turbulentInlet  0;
    uncorrected     0;
    undoableMeshCutter 0;
    uniform         0;
    uniformFixedValue 0;
    unitInjector    0;
    unix            0;
    upwind          0;
    valueStored     0;
    vanDriest       0;
    vanLeer         0;
    vector          0;
    vectorField     0;
    volPointInterpolation 0;
    volScalarField  0;
    volTensorField  0;
    volVectorField  0;
    walkPatch       0;
    wall            0;
    wallBuoyantPressure 0;
    wallHeatTransfer 0;
    wallLayerCells  0;
    wallModel       0;
    wedge           0;
    weighted        0;
    writer          0;
    xmgr            0;
    zeroGradient    0;
    zoneToCell      0;
    zoneToFace      0;
}

InfoSwitches
{
    writeJobInfo    0;
    FoamXwriteComments 0;
}

OptimisationSwitches
{
    fileModificationSkew 10;
    scheduledTransfer 0;
    floatTransfer   0;
    nProcsSimpleSum 16;
}


// ************************************************************************* //
