/*---------------------------------------------------------------------------*\
| =========                 |                                                 |
| \\      /  F ield         | OpenFOAM: The Open Source CFD Toolbox           |
|  \\    /   O peration     | Version:  1.0                                   |
|   \\  /    A nd           | Web:      http://www.openfoam.org               |
|    \\/     M anipulation  |                                                 |
\*---------------------------------------------------------------------------*/

FoamFile
{
    version             1.0;
    format              ascii;

    root                "";
    case                "";
    instance            "";
    local               "";

    class               dictionary;
    object              localJANAFCpData.cfg;
}

// * * * * * * * * * * * * * * * * * * * * * * * * * * * * * * * * * * * * * //

type                dictionary;
displayName         "Cp data";
description         "Cp data";
dictionaryPath      "constant";

entries
{
	H2O
	{
    	type                compound;
	    displayName         "H2O";
	    description         "H2O coefficients";
        entries
        {
            include "JANAFCpEntries.cfg";
        }
    }

    air
    {
        type                compound;
        displayName         "air";
        description         "air coefficients";
        entries
        {
            include "JANAFCpEntries.cfg";
        }
    }
}

include "defaults/localJANAFCpData.def";

// ************************************************************************** //
