/*---------------------------------------------------------------------------*\
| =========                 |                                                 |
| \\      /  F ield         | OpenFOAM: The Open Source CFD Toolbox           |
|  \\    /   O peration     | Version:  1.0                                   |
|   \\  /    A nd           | Web:      http://www.openfoam.org               |
|    \\/     M anipulation  |                                                 |
\*---------------------------------------------------------------------------*/

FoamFile
{
    version             1.0;
    format              ascii;
    
    root                "";
    case                "";
    instance            "";
    local               "";
    
    class               dictionary;
    object              thermodynamicProperties.cfg;
}

// * * * * * * * * * * * * * * * * * * * * * * * * * * * * * * * * * * * * * //

include "$FOAMX_SYSTEM_CONFIG/dictionaries/thermodynamicProperties/thermodynamicProperties.cfg";

entries            
{
    include "$FOAMX_SYSTEM_CONFIG/types/dimensionedScalar/rho0.cfg";
    include "$FOAMX_SYSTEM_CONFIG/types/dimensionedScalar/p0.cfg";
    include "$FOAMX_SYSTEM_CONFIG/types/dimensionedScalar/psi.cfg";
}

include "defaults/thermodynamicProperties.def";

// ************************************************************************* //
