/*---------------------------------------------------------------------------*\
| =========                 |                                                 |
| \\      /  F ield         | OpenFOAM: The Open Source CFD Toolbox           |
|  \\    /   O peration     | Version:  1.0                                   |
|   \\  /    A nd           | Web:      http://www.openfoam.org               |
|    \\/     M anipulation  |                                                 |
\*---------------------------------------------------------------------------*/

FoamFile
{
    version             1.0;
    format              ascii;

    root                "";
    case                "";
    instance            "";
    local               "";

    class               dictionary;
    object              controlDict.cfg;
}

// * * * * * * * * * * * * * * * * * * * * * * * * * * * * * * * * * * * * * //

include "$FOAMX_SYSTEM_CONFIG/dictionaries/controlDict/controlDict.cfg";

entries
{
    include "$FOAMX_SYSTEM_CONFIG/dictionaries/controlDict/standardEntries.cfg";
}

options
{
    applicationClass
    {
        iconURL "/FoamX/icons/small/maths/mhdFoam.gif";
    }
}

include "defaults/controlDict.def";

// ************************************************************************* //
