/*---------------------------------------------------------------------------*\
| =========                 |                                                 |
| \\      /  F ield         | OpenFOAM: The Open Source CFD Toolbox           |
|  \\    /   O peration     | Version:  1.0                                   |
|   \\  /    A nd           | Web:      http://www.openfoam.org               |
|    \\/     M anipulation  |                                                 |
\*---------------------------------------------------------------------------*/

FoamFile
{
    version         2.0;
    format          ascii;

    root            "";
    case            "";
    instance        "";
    local           "";

    class           dictionary;
    object          fvSchemes;
}

// * * * * * * * * * * * * * * * * * * * * * * * * * * * * * * * * * * * * * //

ddtSchemes
{
    default Euler;
}

gradSchemes
{
    default         Gauss linear;
}

divSchemes
{
    default         none;
    div(phia,Ua)    Gauss Gamma2V 1;
    div(phib,Ub)    Gauss Gamma2V 1;
    div(phi,k)      Gauss Gamma2 1;
    div(phi,epsilon) Gauss Gamma2 1;
    div(phi,alpha)  Gauss Gamma201 0.5;
    div((-nuEffa*grad(Ua).T())) Gauss linear;
    div((-nuEffb*grad(Ub).T())) Gauss linear;
}

laplacianSchemes
{
    default         none;
    laplacian(nuEffa,Ua) Gauss linear corrected;
    laplacian(nuEffb,Ub) Gauss linear corrected;
    laplacian((rho|A(U)),p) Gauss linear corrected;
}

interpolationSchemes
{
    default         linear;
}

snGradSchemes
{
    default         corrected;
}

fluxRequired
{
    default         no;
    p;
}


// ************************************************************************* //
