/*---------------------------------------------------------------------------*\
| =========                 |                                                 |
| \\      /  F ield         | OpenFOAM: The Open Source CFD Toolbox           |
|  \\    /   O peration     | Version:  1.0                                   |
|   \\  /    A nd           | Web:      http://www.openfoam.org               |
|    \\/     M anipulation  |                                                 |
\*---------------------------------------------------------------------------*/

FoamFile
{
    version             1.0;
    format              ascii;
    
    root                "";
    case                "";
    instance            "";
    local               "";
    
    class               dictionary;
    object              rhoSonicFoam.cfg;
}
    
// * * * * * * * * * * * * * * * * * * * * * * * * * * * * * * * * * * * * * //

description         "Compressible trans-sonic/supersonic laminar gas flow code.";

executable          rhoSonicFoam;

parameters          
(
    "Root Path"
    "Case Name"
);

modules             
(
    FoamX.Modules.CaseEditor.CaseEditorModule
);

dictionaries        
(
    controlDict
    fvSchemes
    fvSolution
    thermodynamicProperties
);

fields
{
    include "$FOAMX_SYSTEM_CONFIG/types/geometricFields/pDynamic.cfg";
    include "$FOAMX_SYSTEM_CONFIG/types/geometricFields/U.cfg";
    include "$FOAMX_SYSTEM_CONFIG/types/geometricFields/T.cfg";
}

boundaryTypes
{
    outletAdiabatic
    {
        displayName         "outletAdiabatic";
        description         "Adiabatic outlet boundary condition";
        patchType           patch;
        p                   zeroGradient;
        U                   zeroGradient;
        T                   zeroGradient;
    }

    pressureTransmissiveOutlet
    {
        displayName         "pressureTransmissiveOutlet";
        description         "Pressure transmissive outlet boundary condition";
        patchType           patch;
        p                   pressureTransmissive;
        U                   zeroGradient;
        T                   zeroGradient;
    }

    supersonicFreeStream
    {
        displayName         "supersonicFreeStream";
        description         "Supersonic free stream boundary condition";
        patchType           patch;
        p                   zeroGradient;
        U                   supersonicFreeStream;
        T                   zeroGradient;
    }

    inletFixedTemp
    {
        displayName         "inletFixedTemp";
        description         "Inlet with fixed temperature boundary condition";
        patchType           patch;
        p                   fixedValue;
        U                   fixedValue;
        T                   fixedValue;
    }

    wallAdiabatic
    {
        displayName         "wall";
        description         "Wall boundary condition";
        patchType           wall;
        p                   zeroGradient;
        U                   fixedValue;
        T                   zeroGradient;
    }

    slipAdiabatic
    {
        displayName         "slipAdiabatic";
        description         "Slip adabatic wall boundary condition";
        patchType           patch;
        p                   zeroGradient;
        U                   slip;
        T                   zeroGradient;
    }
}

// ************************************************************************* //
