/*---------------------------------------------------------------------------*\
| =========                 |                                                 |
| \\      /  F ield         | OpenFOAM: The Open Source CFD Toolbox           |
|  \\    /   O peration     | Version:  1.0                                   |
|   \\  /    A nd           | Web:      http://www.openfoam.org               |
|    \\/     M anipulation  |                                                 |
\*---------------------------------------------------------------------------*/

FoamFile
{
    version             1.0;
    format              ascii;
    
    root                "";
    case                "";
    instance            "";
    local               "";
    
    class               dictionary;
    object              rasInterFoam.cfg;
}

// * * * * * * * * * * * * * * * * * * * * * * * * * * * * * * * * * * * * * //

description      "Free surface-capturing unsteady RAS two-phase flow code";

executable          rasInterFoam;

parameters          
(
    "Root Path"
    "Case Name"
);

modules
(
    FoamX.Modules.CaseEditor.CaseEditorModule
);

dictionaries        
(
    controlDict
    fvSchemes
    fvSolution
    transportProperties
    turbulenceProperties
    environmentalProperties
);

fields
{
    include "$FOAMX_SYSTEM_CONFIG/types/geometricFields/pd.cfg";
    include "$FOAMX_SYSTEM_CONFIG/types/geometricFields/U.cfg";
    include "$FOAMX_SYSTEM_CONFIG/types/geometricFields/gamma.cfg";
    include "$FOAMX_SYSTEM_CONFIG/types/geometricFields/k.cfg";
    include "$FOAMX_SYSTEM_CONFIG/types/geometricFields/epsilon.cfg";    
    include "$FOAMX_SYSTEM_CONFIG/types/geometricFields/Rkinematic.cfg";
    include "$FOAMX_SYSTEM_CONFIG/types/geometricFields/nuTilda.cfg";    
}

boundaryTypes
{
    wall
    {
        displayName         "wall";
        description         "Wall boundary condition";
        patchType           wall;
        gamma               gammaContactAngle;
        U                   fixedValue;
        pd                  zeroGradient;
        k                   zeroGradient;
        epsilon             zeroGradient;
        R                   zeroGradient;
        nuTilda             zeroGradient;
    }

    wallFunctions
    {
        displayName         "wall";
        description         "Wall boundary condition with wall functions on nuSgs";
        patchType           wall;
        gamma               gammaContactAngle;
        U                   fixedValue;
        pd                  zeroGradient;
        k                   zeroGradient;
        epsilon             zeroGradient;
        R                   zeroGradient;
        nuTilda             zeroGradient;
    }

    wallNoSurfaceTension
    {
        displayName         "wallNoSurfaceTension";
        description         "Wall boundary condition with no surface tension effect";
        patchType           wall;
        gamma               zeroGradient;
        U                   fixedValue;
        pd                  zeroGradient;
        k                   zeroGradient;
        epsilon             zeroGradient;
        R                   zeroGradient;
        nuTilda             zeroGradient;
    }

    wallFunctionsNoSurfaceTension
    {
        displayName         "wallNoSurfaceTension";
        description         "Wall boundary condition with no surface tension effect and wall functions on nuSgs";
        patchType           wall;
        gamma               zeroGradient;
        U                   fixedValue;
        pd                  zeroGradient;
        k                   zeroGradient;
        epsilon             zeroGradient;
        R                   zeroGradient;
        nuTilda             zeroGradient;
    }

    inlet
    {
        displayName         "inlet";
        description         "Inlet boundary condition";
        patchType           patch;
        gamma               fixedValue;
        U                   fixedValue;
        pd                  zeroGradient;
        k                   fixedValue;
        epsilon             fixedValue;
        R                   fixedValue;
        nuTilda             fixedValue;
    }

    atmosphere
    {
        displayName         "atmosphere";
        description         "Atmosphere";
        patchType           patch;
        gamma               inletOutlet;
        U                   inletOutlet;
        pd                  fixedValue;
        k                   inletOutlet;
        epsilon             inletOutlet;
        R                   inletOutlet;
        nuTilda             inletOutlet;
    }

    outlet
    {
        displayName         "outlet";
        description         "Outlet boundary condition";
        patchType           patch;
        gamma               inletOutlet;
        U                   inletOutlet;
        pd                  fixedValue;
        k                   inletOutlet;
        epsilon             inletOutlet;
        R                   inletOutlet;
        nuTilda             inletOutlet;
    }
}

// ************************************************************************* //
