/*---------------------------------------------------------------------------*\
| =========                 |                                                 |
| \\      /  F ield         | OpenFOAM: The Open Source CFD Toolbox           |
|  \\    /   O peration     | Version:  1.0                                   |
|   \\  /    A nd           | Web:      http://www.openfoam.org               |
|    \\/     M anipulation  |                                                 |
\*---------------------------------------------------------------------------*/

FoamFile
{
    version             1.0;
    format              ascii;
    
    root                "";
    case                "";
    instance            "";
    local               "";
    
    class               dictionary;
    object              bubbleFoam.cfg;
}

// * * * * * * * * * * * * * * * * * * * * * * * * * * * * * * * * * * * * * //

description         "Incompressible turbulent Eulerian two phase flow code.";

executable          bubbleFoam;

parameters
(
    "Root Path"
    "Case Name"
);

modules
(
    FoamX.Modules.CaseEditor.CaseEditorModule
);

dictionaries
(
    controlDict
    fvSchemes
    fvSolution
    transportProperties
    turbulenceProperties
    environmentalProperties
);

fields
{
    include "$FOAMX_SYSTEM_CONFIG/types/geometricFields/pDynamic.cfg";
    include "$FOAMX_SYSTEM_CONFIG/types/geometricFields/Ua.cfg";
    include "$FOAMX_SYSTEM_CONFIG/types/geometricFields/Ub.cfg";
    include "$FOAMX_SYSTEM_CONFIG/types/geometricFields/k.cfg";
    include "$FOAMX_SYSTEM_CONFIG/types/geometricFields/epsilon.cfg";    
    include "$FOAMX_SYSTEM_CONFIG/types/geometricFields/alpha.cfg";
}

boundaryTypes
{
    slip
    {
        displayName         "slip";
        description         "Slip boundary condition";
        patchType           patch;
        p                   slip;
        Ua                  slip;
        Ub                  slip;
        k                   slip;
        epsilon             slip;
        alpha               slip;
    }

    outlet
    {
        displayName         "outlet";
        description         "Outlet boundary condition";
        patchType           patch;
        p                   fixedValue;
        Ua                  zeroGradient;
        Ub                  zeroGradient;
        k                   zeroGradient;
        epsilon             zeroGradient;
        alpha               zeroGradient;
    }

    fluxOutlet
    {
        displayName         "fluxOutlet";
        description         "Flux outlet boundary condition";
        patchType           patch;
        superType           outlet;
        p                   fixedValue;
        Ua                  fluxCorrectedVelocity;
        Ub                  fluxCorrectedVelocity;
        k                   zeroGradient;
        epsilon             zeroGradient;
        alpha               zeroGradient;
    }

    inletOutlet
    {
        displayName         "inletOutlet";
        description         "Inlet/outlet boundary condition";
        patchType           patch;
        p                   outletInlet;
        Ua                  inletOutlet;
        Ub                  inletOutlet;
        k                   zeroGradient;
        epsilon             zeroGradient;
        alpha               zeroGradient;
    }

    inlet
    {
        displayName         "inlet";
        description         "Inlet boundary condition";
        patchType           patch;
        p                   zeroGradient;
        Ua                  fixedValue;
        Ub                  fixedValue;
        k                   fixedValue;
        epsilon             fixedValue;
        alpha               fixedValue;
    }
    
    pressureInlet
    {
        displayName         "pressureInlet";
        description         "Pressure inlet boundary condition";
        patchType           patch;
        superType           inlet;
        p                   fixedValue;
        Ua                  pressureInletVelocity;
        Ub                  pressureInletVelocity;
        k                   fixedValue;
        epsilon             fixedValue;
        alpha               fixedValue;
    }
    
    totalPressureInlet
    {
        displayName         "totalPressureInlet";
        description         "Total pressure inlet boundary condition";
        patchType           patch;
        superType           inlet;
        p                   totalPressure;
        Ua                  pressureInletVelocity;
        Ub                  pressureInletVelocity;
        k                   fixedValue;
        epsilon             fixedValue;
        alpha               fixedValue;
    }

    wall
    {
        displayName         "wall";
        description         "Wall boundary condition";
        patchType           wall;
        p                   zeroGradient;
        Ua                  fixedValue;
        Ub                  fixedValue;
        k                   zeroGradient;
        epsilon             zeroGradient;
        alpha               zeroGradient;
    }
}

// ************************************************************************* //
