/*---------------------------------------------------------------------------*\
| =========                 |                                                 |
| \\      /  F ield         | OpenFOAM: The Open Source CFD Toolbox           |
|  \\    /   O peration     | Version:  1.0                                   |
|   \\  /    A nd           | Web:      http://www.openfoam.org               |
|    \\/     M anipulation  |                                                 |
\*---------------------------------------------------------------------------*/

FoamFile
{
    version             1.0;
    format              ascii;
    
    root                "";
    case                "";
    instance            "";
    local               "";
    
    class               dictionary;
    object              transportProperties.cfg;
}

// * * * * * * * * * * * * * * * * * * * * * * * * * * * * * * * * * * * * * //

include "$FOAMX_SYSTEM_CONFIG/dictionaries/transportProperties/transportProperties.cfg";

entries            
{
    include "$FOAMX_SYSTEM_CONFIG/types/dimensionedScalar/rhoa.cfg";
    include "$FOAMX_SYSTEM_CONFIG/types/dimensionedScalar/rhob.cfg";
    include "$FOAMX_SYSTEM_CONFIG/types/dimensionedScalar/nua.cfg";
    include "$FOAMX_SYSTEM_CONFIG/types/dimensionedScalar/nub.cfg";
    include "$FOAMX_SYSTEM_CONFIG/types/dimensionedScalar/da.cfg";
    include "$FOAMX_SYSTEM_CONFIG/types/dimensionedScalar/db.cfg";
    include "$FOAMX_SYSTEM_CONFIG/types/dimensionedScalar/Cvm.cfg";
    include "$FOAMX_SYSTEM_CONFIG/types/dimensionedScalar/Cl.cfg";
    include "$FOAMX_SYSTEM_CONFIG/types/dimensionedScalar/Ct.cfg";
}

include "defaults/transportProperties.def";

// ************************************************************************* //
