/*---------------------------------------------------------------------------*\
| =========                 |                                                 |
| \\      /  F ield         | OpenFOAM: The Open Source CFD Toolbox           |
|  \\    /   O peration     | Version:  1.0                                   |
|   \\  /    A nd           | Web:      http://www.openfoam.org               |
|    \\/     M anipulation  |                                                 |
\*---------------------------------------------------------------------------*/

FoamFile
{
    version 2.0;
    format ascii;

    root "";
    case "";
    instance "";
    local "";

    class shapeList;
    object cellShapes;
}

// * * * * * * * * * * * * * * * * * * * * * * * * * * * * * * * * * * * * * //


19166
(
(5 6(0 1 60 12 13 70))
(5 6(10 11 69 22 23 79))
(5 6(12 13 70 24 25 80))
(3 8(14 15 72 71 26 27 82 81))
(3 8(16 17 74 73 28 29 84 83))
(3 8(18 19 76 75 30 31 86 85))
(3 8(20 21 78 77 32 33 88 87))
(5 6(22 23 79 34 35 89))
(5 6(70 60 100 71 61 101))
(5 6(71 61 101 72 62 102))
(5 6(72 62 102 73 63 103))
(5 6(73 63 103 74 64 104))
(5 6(74 64 104 75 65 105))
(5 6(75 65 105 76 66 106))
(5 6(76 66 106 77 67 107))
(5 6(77 67 107 78 68 108))
(5 6(78 68 108 79 69 109))
(3 8(0 12 302 290 1 13 303 291))
(3 8(1 13 303 291 2 14 304 292))
(3 8(2 14 304 292 3 15 305 293))
(3 8(3 15 305 293 4 16 306 294))
(3 8(4 16 306 294 5 17 307 295))
(3 8(5 17 307 295 6 18 308 296))
(3 8(6 18 308 296 7 19 309 297))
(3 8(7 19 309 297 8 20 310 298))
(3 8(8 20 310 298 9 21 311 299))
(3 8(9 21 311 299 10 22 312 300))
(3 8(10 22 312 300 11 23 313 301))
(3 8(12 24 314 302 13 25 315 303))
(3 8(14 26 316 304 15 27 317 305))
(3 8(16 28 318 306 17 29 319 307))
(3 8(18 30 320 308 19 31 321 309))
(3 8(20 32 322 310 21 33 323 311))
(3 8(22 34 324 312 23 35 325 313))
(3 8(202 1 291 280 203 2 292 281))
(3 8(204 3 293 282 205 4 294 283))
(3 8(206 5 295 284 207 6 296 285))
(3 8(208 7 297 286 209 8 298 287))
(3 8(210 9 299 288 211 10 300 289))
(3 8(342 390 498 438 343 391 499 439))
(3 8(343 391 499 439 344 392 500 440))
(3 8(344 392 500 440 345 393 501 441))
(3 8(345 393 501 441 346 394 502 442))
(3 8(346 394 502 442 347 395 503 443))
(3 8(347 395 503 443 348 396 504 444))
(3 8(348 396 504 444 349 397 505 445))
(3 8(349 397 505 445 350 398 506 446))
(3 8(350 398 506 446 351 399 507 447))
(3 8(351 399 507 447 352 400 508 448))
(3 8(352 400 508 448 353 401 509 449))
(3 8(450 510 618 558 451 511 619 559))
(3 8(451 511 619 559 452 512 620 560))
(3 8(452 512 620 560 453 513 621 561))
(3 8(453 513 621 561 454 514 622 562))
(3 8(454 514 622 562 455 515 623 563))
(3 8(455 515 623 563 456 516 624 564))
(3 8(456 516 624 564 457 517 625 565))
(3 8(457 517 625 565 458 518 626 566))
(3 8(458 518 626 566 459 519 627 567))
(3 8(459 519 627 567 460 520 628 568))
(3 8(460 520 628 568 461 521 629 569))
(3 8(570 630 738 678 571 631 739 679))
(3 8(571 631 739 679 572 632 740 680))
(3 8(572 632 740 680 573 633 741 681))
(3 8(573 633 741 681 574 634 742 682))
(3 8(574 634 742 682 575 635 743 683))
(3 8(575 635 743 683 576 636 744 684))
(3 8(576 636 744 684 577 637 745 685))
(3 8(577 637 745 685 578 638 746 686))
(3 8(578 638 746 686 579 639 747 687))
(3 8(579 639 747 687 580 640 748 688))
(3 8(580 640 748 688 581 641 749 689))
(3 8(690 750 858 798 691 751 859 799))
(3 8(691 751 859 799 692 752 860 800))
(3 8(692 752 860 800 693 753 861 801))
(3 8(693 753 861 801 694 754 862 802))
(3 8(694 754 862 802 695 755 863 803))
(3 8(695 755 863 803 696 756 864 804))
(3 8(696 756 864 804 697 757 865 805))
(3 8(697 757 865 805 698 758 866 806))
(3 8(698 758 866 806 699 759 867 807))
(3 8(699 759 867 807 700 760 868 808))
(3 8(700 760 868 808 701 761 869 809))
(3 8(290 302 883 882 291 303 889 888))
(3 8(882 883 885 884 888 889 891 890))
(3 8(884 885 887 886 890 891 893 892))
(3 8(886 887 224 212 892 893 225 213))
(3 8(291 303 889 888 292 304 895 894))
(3 8(888 889 891 890 894 895 897 896))
(3 8(890 891 893 892 896 897 899 898))
(3 8(892 893 225 213 898 899 226 214))
(3 8(292 304 895 894 293 305 901 900))
(3 8(894 895 897 896 900 901 903 902))
(3 8(896 897 899 898 902 903 905 904))
(3 8(898 899 226 214 904 905 227 215))
(3 8(293 305 901 900 294 306 907 906))
(3 8(900 901 903 902 906 907 909 908))
(3 8(902 903 905 904 908 909 911 910))
(3 8(904 905 227 215 910 911 228 216))
(3 8(294 306 907 906 295 307 913 912))
(3 8(906 907 909 908 912 913 915 914))
(3 8(908 909 911 910 914 915 917 916))
(3 8(910 911 228 216 916 917 229 217))
(3 8(295 307 913 912 296 308 919 918))
(3 8(912 913 915 914 918 919 921 920))
(3 8(914 915 917 916 920 921 923 922))
(3 8(916 917 229 217 922 923 230 218))
(3 8(296 308 919 918 297 309 925 924))
(3 8(918 919 921 920 924 925 927 926))
(3 8(920 921 923 922 926 927 929 928))
(3 8(922 923 230 218 928 929 231 219))
(3 8(297 309 925 924 298 310 931 930))
(3 8(924 925 927 926 930 931 933 932))
(3 8(926 927 929 928 932 933 935 934))
(3 8(928 929 231 219 934 935 232 220))
(3 8(298 310 931 930 299 311 937 936))
(3 8(930 931 933 932 936 937 939 938))
(3 8(932 933 935 934 938 939 941 940))
(3 8(934 935 232 220 940 941 233 221))
(3 8(299 311 937 936 300 312 943 942))
(3 8(936 937 939 938 942 943 945 944))
(3 8(938 939 941 940 944 945 947 946))
(3 8(940 941 233 221 946 947 234 222))
(3 8(300 312 943 942 301 313 949 948))
(3 8(942 943 945 944 948 949 951 950))
(3 8(944 945 947 946 950 951 953 952))
(3 8(946 947 234 222 952 953 235 223))
(3 8(302 314 954 883 303 315 957 889))
(3 8(883 954 955 885 889 957 958 891))
(3 8(885 955 956 887 891 958 959 893))
(3 8(887 956 236 224 893 959 237 225))
(3 8(304 316 960 895 305 317 963 901))
(3 8(895 960 961 897 901 963 964 903))
(3 8(897 961 962 899 903 964 965 905))
(3 8(899 962 238 226 905 965 239 227))
(3 8(306 318 966 907 307 319 969 913))
(3 8(907 966 967 909 913 969 970 915))
(3 8(909 967 968 911 915 970 971 917))
(3 8(911 968 240 228 917 971 241 229))
(3 8(308 320 972 919 309 321 975 925))
(3 8(919 972 973 921 925 975 976 927))
(3 8(921 973 974 923 927 976 977 929))
(3 8(923 974 242 230 929 977 243 231))
(3 8(310 322 978 931 311 323 981 937))
(3 8(931 978 979 933 937 981 982 939))
(3 8(933 979 980 935 939 982 983 941))
(3 8(935 980 244 232 941 983 245 233))
(3 8(312 324 984 943 313 325 987 949))
(3 8(943 984 985 945 949 987 988 951))
(3 8(945 985 986 947 951 988 989 953))
(3 8(947 986 246 234 953 989 247 235))
(3 8(280 291 888 1026 281 292 894 1029))
(3 8(1026 888 890 1027 1029 894 896 1030))
(3 8(1027 890 892 1028 1030 896 898 1031))
(3 8(1028 892 213 270 1031 898 214 271))
(3 8(282 293 900 1032 283 294 906 1035))
(3 8(1032 900 902 1033 1035 906 908 1036))
(3 8(1033 902 904 1034 1036 908 910 1037))
(3 8(1034 904 215 272 1037 910 216 273))
(3 8(284 295 912 1038 285 296 918 1041))
(3 8(1038 912 914 1039 1041 918 920 1042))
(3 8(1039 914 916 1040 1042 920 922 1043))
(3 8(1040 916 217 274 1043 922 218 275))
(3 8(286 297 924 1044 287 298 930 1047))
(3 8(1044 924 926 1045 1047 930 932 1048))
(3 8(1045 926 928 1046 1048 932 934 1049))
(3 8(1046 928 219 276 1049 934 220 277))
(3 8(288 299 936 1050 289 300 942 1053))
(3 8(1050 936 938 1051 1053 942 944 1054))
(3 8(1051 938 940 1052 1054 944 946 1055))
(3 8(1052 940 221 278 1055 946 222 279))
(3 8(212 224 1057 1056 213 225 1063 1062))
(3 8(1056 1057 1059 1058 1062 1063 1065 1064))
(3 8(1058 1059 1061 1060 1064 1065 1067 1066))
(3 8(1060 1061 142 130 1066 1067 143 131))
(3 8(213 225 1063 1062 214 226 1069 1068))
(3 8(1062 1063 1065 1064 1068 1069 1071 1070))
(3 8(1064 1065 1067 1066 1070 1071 1073 1072))
(3 8(1066 1067 143 131 1072 1073 144 132))
(3 8(214 226 1069 1068 215 227 1075 1074))
(3 8(1068 1069 1071 1070 1074 1075 1077 1076))
(3 8(1070 1071 1073 1072 1076 1077 1079 1078))
(3 8(1072 1073 144 132 1078 1079 145 133))
(3 8(215 227 1075 1074 216 228 1081 1080))
(3 8(1074 1075 1077 1076 1080 1081 1083 1082))
(3 8(1076 1077 1079 1078 1082 1083 1085 1084))
(3 8(1078 1079 145 133 1084 1085 146 134))
(3 8(216 228 1081 1080 217 229 1087 1086))
(3 8(1080 1081 1083 1082 1086 1087 1089 1088))
(3 8(1082 1083 1085 1084 1088 1089 1091 1090))
(3 8(1084 1085 146 134 1090 1091 147 135))
(3 8(217 229 1087 1086 218 230 1093 1092))
(3 8(1086 1087 1089 1088 1092 1093 1095 1094))
(3 8(1088 1089 1091 1090 1094 1095 1097 1096))
(3 8(1090 1091 147 135 1096 1097 148 136))
(3 8(218 230 1093 1092 219 231 1099 1098))
(3 8(1092 1093 1095 1094 1098 1099 1101 1100))
(3 8(1094 1095 1097 1096 1100 1101 1103 1102))
(3 8(1096 1097 148 136 1102 1103 149 137))
(3 8(219 231 1099 1098 220 232 1105 1104))
(3 8(1098 1099 1101 1100 1104 1105 1107 1106))
(3 8(1100 1101 1103 1102 1106 1107 1109 1108))
(3 8(1102 1103 149 137 1108 1109 150 138))
(3 8(220 232 1105 1104 221 233 1111 1110))
(3 8(1104 1105 1107 1106 1110 1111 1113 1112))
(3 8(1106 1107 1109 1108 1112 1113 1115 1114))
(3 8(1108 1109 150 138 1114 1115 151 139))
(3 8(221 233 1111 1110 222 234 1117 1116))
(3 8(1110 1111 1113 1112 1116 1117 1119 1118))
(3 8(1112 1113 1115 1114 1118 1119 1121 1120))
(3 8(1114 1115 151 139 1120 1121 152 140))
(3 8(222 234 1117 1116 223 235 1123 1122))
(3 8(1116 1117 1119 1118 1122 1123 1125 1124))
(3 8(1118 1119 1121 1120 1124 1125 1127 1126))
(3 8(1120 1121 152 140 1126 1127 153 141))
(3 8(224 236 1128 1057 225 237 1131 1063))
(3 8(1057 1128 1129 1059 1063 1131 1132 1065))
(3 8(1059 1129 1130 1061 1065 1132 1133 1067))
(3 8(1061 1130 154 142 1067 1133 155 143))
(3 8(226 238 1134 1069 227 239 1137 1075))
(3 8(1069 1134 1135 1071 1075 1137 1138 1077))
(3 8(1071 1135 1136 1073 1077 1138 1139 1079))
(3 8(1073 1136 156 144 1079 1139 157 145))
(3 8(228 240 1140 1081 229 241 1143 1087))
(3 8(1081 1140 1141 1083 1087 1143 1144 1089))
(3 8(1083 1141 1142 1085 1089 1144 1145 1091))
(3 8(1085 1142 158 146 1091 1145 159 147))
(3 8(230 242 1146 1093 231 243 1149 1099))
(3 8(1093 1146 1147 1095 1099 1149 1150 1101))
(3 8(1095 1147 1148 1097 1101 1150 1151 1103))
(3 8(1097 1148 160 148 1103 1151 161 149))
(3 8(232 244 1152 1105 233 245 1155 1111))
(3 8(1105 1152 1153 1107 1111 1155 1156 1113))
(3 8(1107 1153 1154 1109 1113 1156 1157 1115))
(3 8(1109 1154 162 150 1115 1157 163 151))
(3 8(234 246 1158 1117 235 247 1161 1123))
(3 8(1117 1158 1159 1119 1123 1161 1162 1125))
(3 8(1119 1159 1160 1121 1125 1162 1163 1127))
(3 8(1121 1160 164 152 1127 1163 165 153))
(3 8(270 213 1062 1200 271 214 1068 1203))
(3 8(1200 1062 1064 1201 1203 1068 1070 1204))
(3 8(1201 1064 1066 1202 1204 1070 1072 1205))
(3 8(1202 1066 131 260 1205 1072 132 261))
(3 8(272 215 1074 1206 273 216 1080 1209))
(3 8(1206 1074 1076 1207 1209 1080 1082 1210))
(3 8(1207 1076 1078 1208 1210 1082 1084 1211))
(3 8(1208 1078 133 262 1211 1084 134 263))
(3 8(274 217 1086 1212 275 218 1092 1215))
(3 8(1212 1086 1088 1213 1215 1092 1094 1216))
(3 8(1213 1088 1090 1214 1216 1094 1096 1217))
(3 8(1214 1090 135 264 1217 1096 136 265))
(3 8(276 219 1098 1218 277 220 1104 1221))
(3 8(1218 1098 1100 1219 1221 1104 1106 1222))
(3 8(1219 1100 1102 1220 1222 1106 1108 1223))
(3 8(1220 1102 137 266 1223 1108 138 267))
(3 8(278 221 1110 1224 279 222 1116 1227))
(3 8(1224 1110 1112 1225 1227 1116 1118 1228))
(3 8(1225 1112 1114 1226 1228 1118 1120 1229))
(3 8(1226 1114 139 268 1229 1120 140 269))
(3 8(438 498 1278 1242 439 499 1281 1245))
(3 8(1242 1278 1279 1243 1245 1281 1282 1246))
(3 8(1243 1279 1280 1244 1246 1282 1283 1247))
(3 8(1244 1280 426 378 1247 1283 427 379))
(3 8(439 499 1281 1245 440 500 1284 1248))
(3 8(1245 1281 1282 1246 1248 1284 1285 1249))
(3 8(1246 1282 1283 1247 1249 1285 1286 1250))
(3 8(1247 1283 427 379 1250 1286 428 380))
(3 8(440 500 1284 1248 441 501 1287 1251))
(3 8(1248 1284 1285 1249 1251 1287 1288 1252))
(3 8(1249 1285 1286 1250 1252 1288 1289 1253))
(3 8(1250 1286 428 380 1253 1289 429 381))
(3 8(441 501 1287 1251 442 502 1290 1254))
(3 8(1251 1287 1288 1252 1254 1290 1291 1255))
(3 8(1252 1288 1289 1253 1255 1291 1292 1256))
(3 8(1253 1289 429 381 1256 1292 430 382))
(3 8(442 502 1290 1254 443 503 1293 1257))
(3 8(1254 1290 1291 1255 1257 1293 1294 1258))
(3 8(1255 1291 1292 1256 1258 1294 1295 1259))
(3 8(1256 1292 430 382 1259 1295 431 383))
(3 8(443 503 1293 1257 444 504 1296 1260))
(3 8(1257 1293 1294 1258 1260 1296 1297 1261))
(3 8(1258 1294 1295 1259 1261 1297 1298 1262))
(3 8(1259 1295 431 383 1262 1298 432 384))
(3 8(444 504 1296 1260 445 505 1299 1263))
(3 8(1260 1296 1297 1261 1263 1299 1300 1264))
(3 8(1261 1297 1298 1262 1264 1300 1301 1265))
(3 8(1262 1298 432 384 1265 1301 433 385))
(3 8(445 505 1299 1263 446 506 1302 1266))
(3 8(1263 1299 1300 1264 1266 1302 1303 1267))
(3 8(1264 1300 1301 1265 1267 1303 1304 1268))
(3 8(1265 1301 433 385 1268 1304 434 386))
(3 8(446 506 1302 1266 447 507 1305 1269))
(3 8(1266 1302 1303 1267 1269 1305 1306 1270))
(3 8(1267 1303 1304 1268 1270 1306 1307 1271))
(3 8(1268 1304 434 386 1271 1307 435 387))
(3 8(447 507 1305 1269 448 508 1308 1272))
(3 8(1269 1305 1306 1270 1272 1308 1309 1273))
(3 8(1270 1306 1307 1271 1273 1309 1310 1274))
(3 8(1271 1307 435 387 1274 1310 436 388))
(3 8(448 508 1308 1272 449 509 1311 1275))
(3 8(1272 1308 1309 1273 1275 1311 1312 1276))
(3 8(1273 1309 1310 1274 1276 1312 1313 1277))
(3 8(1274 1310 436 388 1277 1313 437 389))
(3 8(558 618 1350 1314 559 619 1353 1317))
(3 8(1314 1350 1351 1315 1317 1353 1354 1318))
(3 8(1315 1351 1352 1316 1318 1354 1355 1319))
(3 8(1316 1352 546 486 1319 1355 547 487))
(3 8(559 619 1353 1317 560 620 1356 1320))
(3 8(1317 1353 1354 1318 1320 1356 1357 1321))
(3 8(1318 1354 1355 1319 1321 1357 1358 1322))
(3 8(1319 1355 547 487 1322 1358 548 488))
(3 8(560 620 1356 1320 561 621 1359 1323))
(3 8(1320 1356 1357 1321 1323 1359 1360 1324))
(3 8(1321 1357 1358 1322 1324 1360 1361 1325))
(3 8(1322 1358 548 488 1325 1361 549 489))
(3 8(561 621 1359 1323 562 622 1362 1326))
(3 8(1323 1359 1360 1324 1326 1362 1363 1327))
(3 8(1324 1360 1361 1325 1327 1363 1364 1328))
(3 8(1325 1361 549 489 1328 1364 550 490))
(3 8(562 622 1362 1326 563 623 1365 1329))
(3 8(1326 1362 1363 1327 1329 1365 1366 1330))
(3 8(1327 1363 1364 1328 1330 1366 1367 1331))
(3 8(1328 1364 550 490 1331 1367 551 491))
(3 8(563 623 1365 1329 564 624 1368 1332))
(3 8(1329 1365 1366 1330 1332 1368 1369 1333))
(3 8(1330 1366 1367 1331 1333 1369 1370 1334))
(3 8(1331 1367 551 491 1334 1370 552 492))
(3 8(564 624 1368 1332 565 625 1371 1335))
(3 8(1332 1368 1369 1333 1335 1371 1372 1336))
(3 8(1333 1369 1370 1334 1336 1372 1373 1337))
(3 8(1334 1370 552 492 1337 1373 553 493))
(3 8(565 625 1371 1335 566 626 1374 1338))
(3 8(1335 1371 1372 1336 1338 1374 1375 1339))
(3 8(1336 1372 1373 1337 1339 1375 1376 1340))
(3 8(1337 1373 553 493 1340 1376 554 494))
(3 8(566 626 1374 1338 567 627 1377 1341))
(3 8(1338 1374 1375 1339 1341 1377 1378 1342))
(3 8(1339 1375 1376 1340 1342 1378 1379 1343))
(3 8(1340 1376 554 494 1343 1379 555 495))
(3 8(567 627 1377 1341 568 628 1380 1344))
(3 8(1341 1377 1378 1342 1344 1380 1381 1345))
(3 8(1342 1378 1379 1343 1345 1381 1382 1346))
(3 8(1343 1379 555 495 1346 1382 556 496))
(3 8(568 628 1380 1344 569 629 1383 1347))
(3 8(1344 1380 1381 1345 1347 1383 1384 1348))
(3 8(1345 1381 1382 1346 1348 1384 1385 1349))
(3 8(1346 1382 556 496 1349 1385 557 497))
(3 8(678 738 1422 1386 679 739 1425 1389))
(3 8(1386 1422 1423 1387 1389 1425 1426 1390))
(3 8(1387 1423 1424 1388 1390 1426 1427 1391))
(3 8(1388 1424 666 606 1391 1427 667 607))
(3 8(679 739 1425 1389 680 740 1428 1392))
(3 8(1389 1425 1426 1390 1392 1428 1429 1393))
(3 8(1390 1426 1427 1391 1393 1429 1430 1394))
(3 8(1391 1427 667 607 1394 1430 668 608))
(3 8(680 740 1428 1392 681 741 1431 1395))
(3 8(1392 1428 1429 1393 1395 1431 1432 1396))
(3 8(1393 1429 1430 1394 1396 1432 1433 1397))
(3 8(1394 1430 668 608 1397 1433 669 609))
(3 8(681 741 1431 1395 682 742 1434 1398))
(3 8(1395 1431 1432 1396 1398 1434 1435 1399))
(3 8(1396 1432 1433 1397 1399 1435 1436 1400))
(3 8(1397 1433 669 609 1400 1436 670 610))
(3 8(682 742 1434 1398 683 743 1437 1401))
(3 8(1398 1434 1435 1399 1401 1437 1438 1402))
(3 8(1399 1435 1436 1400 1402 1438 1439 1403))
(3 8(1400 1436 670 610 1403 1439 671 611))
(3 8(683 743 1437 1401 684 744 1440 1404))
(3 8(1401 1437 1438 1402 1404 1440 1441 1405))
(3 8(1402 1438 1439 1403 1405 1441 1442 1406))
(3 8(1403 1439 671 611 1406 1442 672 612))
(3 8(684 744 1440 1404 685 745 1443 1407))
(3 8(1404 1440 1441 1405 1407 1443 1444 1408))
(3 8(1405 1441 1442 1406 1408 1444 1445 1409))
(3 8(1406 1442 672 612 1409 1445 673 613))
(3 8(685 745 1443 1407 686 746 1446 1410))
(3 8(1407 1443 1444 1408 1410 1446 1447 1411))
(3 8(1408 1444 1445 1409 1411 1447 1448 1412))
(3 8(1409 1445 673 613 1412 1448 674 614))
(3 8(686 746 1446 1410 687 747 1449 1413))
(3 8(1410 1446 1447 1411 1413 1449 1450 1414))
(3 8(1411 1447 1448 1412 1414 1450 1451 1415))
(3 8(1412 1448 674 614 1415 1451 675 615))
(3 8(687 747 1449 1413 688 748 1452 1416))
(3 8(1413 1449 1450 1414 1416 1452 1453 1417))
(3 8(1414 1450 1451 1415 1417 1453 1454 1418))
(3 8(1415 1451 675 615 1418 1454 676 616))
(3 8(688 748 1452 1416 689 749 1455 1419))
(3 8(1416 1452 1453 1417 1419 1455 1456 1420))
(3 8(1417 1453 1454 1418 1420 1456 1457 1421))
(3 8(1418 1454 676 616 1421 1457 677 617))
(3 8(798 858 1494 1458 799 859 1497 1461))
(3 8(1458 1494 1495 1459 1461 1497 1498 1462))
(3 8(1459 1495 1496 1460 1462 1498 1499 1463))
(3 8(1460 1496 786 726 1463 1499 787 727))
(3 8(799 859 1497 1461 800 860 1500 1464))
(3 8(1461 1497 1498 1462 1464 1500 1501 1465))
(3 8(1462 1498 1499 1463 1465 1501 1502 1466))
(3 8(1463 1499 787 727 1466 1502 788 728))
(3 8(800 860 1500 1464 801 861 1503 1467))
(3 8(1464 1500 1501 1465 1467 1503 1504 1468))
(3 8(1465 1501 1502 1466 1468 1504 1505 1469))
(3 8(1466 1502 788 728 1469 1505 789 729))
(3 8(801 861 1503 1467 802 862 1506 1470))
(3 8(1467 1503 1504 1468 1470 1506 1507 1471))
(3 8(1468 1504 1505 1469 1471 1507 1508 1472))
(3 8(1469 1505 789 729 1472 1508 790 730))
(3 8(802 862 1506 1470 803 863 1509 1473))
(3 8(1470 1506 1507 1471 1473 1509 1510 1474))
(3 8(1471 1507 1508 1472 1474 1510 1511 1475))
(3 8(1472 1508 790 730 1475 1511 791 731))
(3 8(803 863 1509 1473 804 864 1512 1476))
(3 8(1473 1509 1510 1474 1476 1512 1513 1477))
(3 8(1474 1510 1511 1475 1477 1513 1514 1478))
(3 8(1475 1511 791 731 1478 1514 792 732))
(3 8(804 864 1512 1476 805 865 1515 1479))
(3 8(1476 1512 1513 1477 1479 1515 1516 1480))
(3 8(1477 1513 1514 1478 1480 1516 1517 1481))
(3 8(1478 1514 792 732 1481 1517 793 733))
(3 8(805 865 1515 1479 806 866 1518 1482))
(3 8(1479 1515 1516 1480 1482 1518 1519 1483))
(3 8(1480 1516 1517 1481 1483 1519 1520 1484))
(3 8(1481 1517 793 733 1484 1520 794 734))
(3 8(806 866 1518 1482 807 867 1521 1485))
(3 8(1482 1518 1519 1483 1485 1521 1522 1486))
(3 8(1483 1519 1520 1484 1486 1522 1523 1487))
(3 8(1484 1520 794 734 1487 1523 795 735))
(3 8(807 867 1521 1485 808 868 1524 1488))
(3 8(1485 1521 1522 1486 1488 1524 1525 1489))
(3 8(1486 1522 1523 1487 1489 1525 1526 1490))
(3 8(1487 1523 795 735 1490 1526 796 736))
(3 8(808 868 1524 1488 809 869 1527 1491))
(3 8(1488 1524 1525 1489 1491 1527 1528 1492))
(3 8(1489 1525 1526 1490 1492 1528 1529 1493))
(3 8(1490 1526 796 736 1493 1529 797 737))
(3 8(378 426 1602 1566 379 427 1605 1569))
(3 8(1566 1602 1603 1567 1569 1605 1606 1570))
(3 8(1567 1603 1604 1568 1570 1606 1607 1571))
(3 8(1568 1604 402 354 1571 1607 403 355))
(3 8(379 427 1605 1569 380 428 1608 1572))
(3 8(1569 1605 1606 1570 1572 1608 1609 1573))
(3 8(1570 1606 1607 1571 1573 1609 1610 1574))
(3 8(1571 1607 403 355 1574 1610 404 356))
(3 8(380 428 1608 1572 381 429 1611 1575))
(3 8(1572 1608 1609 1573 1575 1611 1612 1576))
(3 8(1573 1609 1610 1574 1576 1612 1613 1577))
(3 8(1574 1610 404 356 1577 1613 405 357))
(3 8(381 429 1611 1575 382 430 1614 1578))
(3 8(1575 1611 1612 1576 1578 1614 1615 1579))
(3 8(1576 1612 1613 1577 1579 1615 1616 1580))
(3 8(1577 1613 405 357 1580 1616 406 358))
(3 8(382 430 1614 1578 383 431 1617 1581))
(3 8(1578 1614 1615 1579 1581 1617 1618 1582))
(3 8(1579 1615 1616 1580 1582 1618 1619 1583))
(3 8(1580 1616 406 358 1583 1619 407 359))
(3 8(383 431 1617 1581 384 432 1620 1584))
(3 8(1581 1617 1618 1582 1584 1620 1621 1585))
(3 8(1582 1618 1619 1583 1585 1621 1622 1586))
(3 8(1583 1619 407 359 1586 1622 408 360))
(3 8(384 432 1620 1584 385 433 1623 1587))
(3 8(1584 1620 1621 1585 1587 1623 1624 1588))
(3 8(1585 1621 1622 1586 1588 1624 1625 1589))
(3 8(1586 1622 408 360 1589 1625 409 361))
(3 8(385 433 1623 1587 386 434 1626 1590))
(3 8(1587 1623 1624 1588 1590 1626 1627 1591))
(3 8(1588 1624 1625 1589 1591 1627 1628 1592))
(3 8(1589 1625 409 361 1592 1628 410 362))
(3 8(386 434 1626 1590 387 435 1629 1593))
(3 8(1590 1626 1627 1591 1593 1629 1630 1594))
(3 8(1591 1627 1628 1592 1594 1630 1631 1595))
(3 8(1592 1628 410 362 1595 1631 411 363))
(3 8(387 435 1629 1593 388 436 1632 1596))
(3 8(1593 1629 1630 1594 1596 1632 1633 1597))
(3 8(1594 1630 1631 1595 1597 1633 1634 1598))
(3 8(1595 1631 411 363 1598 1634 412 364))
(3 8(388 436 1632 1596 389 437 1635 1599))
(3 8(1596 1632 1633 1597 1599 1635 1636 1600))
(3 8(1597 1633 1634 1598 1600 1636 1637 1601))
(3 8(1598 1634 412 364 1601 1637 413 365))
(3 8(486 546 1674 1638 487 547 1677 1641))
(3 8(1638 1674 1675 1639 1641 1677 1678 1642))
(3 8(1639 1675 1676 1640 1642 1678 1679 1643))
(3 8(1640 1676 522 462 1643 1679 523 463))
(3 8(487 547 1677 1641 488 548 1680 1644))
(3 8(1641 1677 1678 1642 1644 1680 1681 1645))
(3 8(1642 1678 1679 1643 1645 1681 1682 1646))
(3 8(1643 1679 523 463 1646 1682 524 464))
(3 8(488 548 1680 1644 489 549 1683 1647))
(3 8(1644 1680 1681 1645 1647 1683 1684 1648))
(3 8(1645 1681 1682 1646 1648 1684 1685 1649))
(3 8(1646 1682 524 464 1649 1685 525 465))
(3 8(489 549 1683 1647 490 550 1686 1650))
(3 8(1647 1683 1684 1648 1650 1686 1687 1651))
(3 8(1648 1684 1685 1649 1651 1687 1688 1652))
(3 8(1649 1685 525 465 1652 1688 526 466))
(3 8(490 550 1686 1650 491 551 1689 1653))
(3 8(1650 1686 1687 1651 1653 1689 1690 1654))
(3 8(1651 1687 1688 1652 1654 1690 1691 1655))
(3 8(1652 1688 526 466 1655 1691 527 467))
(3 8(491 551 1689 1653 492 552 1692 1656))
(3 8(1653 1689 1690 1654 1656 1692 1693 1657))
(3 8(1654 1690 1691 1655 1657 1693 1694 1658))
(3 8(1655 1691 527 467 1658 1694 528 468))
(3 8(492 552 1692 1656 493 553 1695 1659))
(3 8(1656 1692 1693 1657 1659 1695 1696 1660))
(3 8(1657 1693 1694 1658 1660 1696 1697 1661))
(3 8(1658 1694 528 468 1661 1697 529 469))
(3 8(493 553 1695 1659 494 554 1698 1662))
(3 8(1659 1695 1696 1660 1662 1698 1699 1663))
(3 8(1660 1696 1697 1661 1663 1699 1700 1664))
(3 8(1661 1697 529 469 1664 1700 530 470))
(3 8(494 554 1698 1662 495 555 1701 1665))
(3 8(1662 1698 1699 1663 1665 1701 1702 1666))
(3 8(1663 1699 1700 1664 1666 1702 1703 1667))
(3 8(1664 1700 530 470 1667 1703 531 471))
(3 8(495 555 1701 1665 496 556 1704 1668))
(3 8(1665 1701 1702 1666 1668 1704 1705 1669))
(3 8(1666 1702 1703 1667 1669 1705 1706 1670))
(3 8(1667 1703 531 471 1670 1706 532 472))
(3 8(496 556 1704 1668 497 557 1707 1671))
(3 8(1668 1704 1705 1669 1671 1707 1708 1672))
(3 8(1669 1705 1706 1670 1672 1708 1709 1673))
(3 8(1670 1706 532 472 1673 1709 533 473))
(3 8(606 666 1746 1710 607 667 1749 1713))
(3 8(1710 1746 1747 1711 1713 1749 1750 1714))
(3 8(1711 1747 1748 1712 1714 1750 1751 1715))
(3 8(1712 1748 642 582 1715 1751 643 583))
(3 8(607 667 1749 1713 608 668 1752 1716))
(3 8(1713 1749 1750 1714 1716 1752 1753 1717))
(3 8(1714 1750 1751 1715 1717 1753 1754 1718))
(3 8(1715 1751 643 583 1718 1754 644 584))
(3 8(608 668 1752 1716 609 669 1755 1719))
(3 8(1716 1752 1753 1717 1719 1755 1756 1720))
(3 8(1717 1753 1754 1718 1720 1756 1757 1721))
(3 8(1718 1754 644 584 1721 1757 645 585))
(3 8(609 669 1755 1719 610 670 1758 1722))
(3 8(1719 1755 1756 1720 1722 1758 1759 1723))
(3 8(1720 1756 1757 1721 1723 1759 1760 1724))
(3 8(1721 1757 645 585 1724 1760 646 586))
(3 8(610 670 1758 1722 611 671 1761 1725))
(3 8(1722 1758 1759 1723 1725 1761 1762 1726))
(3 8(1723 1759 1760 1724 1726 1762 1763 1727))
(3 8(1724 1760 646 586 1727 1763 647 587))
(3 8(611 671 1761 1725 612 672 1764 1728))
(3 8(1725 1761 1762 1726 1728 1764 1765 1729))
(3 8(1726 1762 1763 1727 1729 1765 1766 1730))
(3 8(1727 1763 647 587 1730 1766 648 588))
(3 8(612 672 1764 1728 613 673 1767 1731))
(3 8(1728 1764 1765 1729 1731 1767 1768 1732))
(3 8(1729 1765 1766 1730 1732 1768 1769 1733))
(3 8(1730 1766 648 588 1733 1769 649 589))
(3 8(613 673 1767 1731 614 674 1770 1734))
(3 8(1731 1767 1768 1732 1734 1770 1771 1735))
(3 8(1732 1768 1769 1733 1735 1771 1772 1736))
(3 8(1733 1769 649 589 1736 1772 650 590))
(3 8(614 674 1770 1734 615 675 1773 1737))
(3 8(1734 1770 1771 1735 1737 1773 1774 1738))
(3 8(1735 1771 1772 1736 1738 1774 1775 1739))
(3 8(1736 1772 650 590 1739 1775 651 591))
(3 8(615 675 1773 1737 616 676 1776 1740))
(3 8(1737 1773 1774 1738 1740 1776 1777 1741))
(3 8(1738 1774 1775 1739 1741 1777 1778 1742))
(3 8(1739 1775 651 591 1742 1778 652 592))
(3 8(616 676 1776 1740 617 677 1779 1743))
(3 8(1740 1776 1777 1741 1743 1779 1780 1744))
(3 8(1741 1777 1778 1742 1744 1780 1781 1745))
(3 8(1742 1778 652 592 1745 1781 653 593))
(3 8(726 786 1818 1782 727 787 1821 1785))
(3 8(1782 1818 1819 1783 1785 1821 1822 1786))
(3 8(1783 1819 1820 1784 1786 1822 1823 1787))
(3 8(1784 1820 762 702 1787 1823 763 703))
(3 8(727 787 1821 1785 728 788 1824 1788))
(3 8(1785 1821 1822 1786 1788 1824 1825 1789))
(3 8(1786 1822 1823 1787 1789 1825 1826 1790))
(3 8(1787 1823 763 703 1790 1826 764 704))
(3 8(728 788 1824 1788 729 789 1827 1791))
(3 8(1788 1824 1825 1789 1791 1827 1828 1792))
(3 8(1789 1825 1826 1790 1792 1828 1829 1793))
(3 8(1790 1826 764 704 1793 1829 765 705))
(3 8(729 789 1827 1791 730 790 1830 1794))
(3 8(1791 1827 1828 1792 1794 1830 1831 1795))
(3 8(1792 1828 1829 1793 1795 1831 1832 1796))
(3 8(1793 1829 765 705 1796 1832 766 706))
(3 8(730 790 1830 1794 731 791 1833 1797))
(3 8(1794 1830 1831 1795 1797 1833 1834 1798))
(3 8(1795 1831 1832 1796 1798 1834 1835 1799))
(3 8(1796 1832 766 706 1799 1835 767 707))
(3 8(731 791 1833 1797 732 792 1836 1800))
(3 8(1797 1833 1834 1798 1800 1836 1837 1801))
(3 8(1798 1834 1835 1799 1801 1837 1838 1802))
(3 8(1799 1835 767 707 1802 1838 768 708))
(3 8(732 792 1836 1800 733 793 1839 1803))
(3 8(1800 1836 1837 1801 1803 1839 1840 1804))
(3 8(1801 1837 1838 1802 1804 1840 1841 1805))
(3 8(1802 1838 768 708 1805 1841 769 709))
(3 8(733 793 1839 1803 734 794 1842 1806))
(3 8(1803 1839 1840 1804 1806 1842 1843 1807))
(3 8(1804 1840 1841 1805 1807 1843 1844 1808))
(3 8(1805 1841 769 709 1808 1844 770 710))
(3 8(734 794 1842 1806 735 795 1845 1809))
(3 8(1806 1842 1843 1807 1809 1845 1846 1810))
(3 8(1807 1843 1844 1808 1810 1846 1847 1811))
(3 8(1808 1844 770 710 1811 1847 771 711))
(3 8(735 795 1845 1809 736 796 1848 1812))
(3 8(1809 1845 1846 1810 1812 1848 1849 1813))
(3 8(1810 1846 1847 1811 1813 1849 1850 1814))
(3 8(1811 1847 771 711 1814 1850 772 712))
(3 8(736 796 1848 1812 737 797 1851 1815))
(3 8(1812 1848 1849 1813 1815 1851 1852 1816))
(3 8(1813 1849 1850 1814 1816 1852 1853 1817))
(3 8(1814 1850 772 712 1817 1853 773 713))
(3 8(354 402 1902 1890 355 403 1903 1891))
(3 8(1890 1902 414 366 1891 1903 415 367))
(3 8(355 403 1903 1891 356 404 1904 1892))
(3 8(1891 1903 415 367 1892 1904 416 368))
(3 8(356 404 1904 1892 357 405 1905 1893))
(3 8(1892 1904 416 368 1893 1905 417 369))
(3 8(357 405 1905 1893 358 406 1906 1894))
(3 8(1893 1905 417 369 1894 1906 418 370))
(3 8(358 406 1906 1894 359 407 1907 1895))
(3 8(1894 1906 418 370 1895 1907 419 371))
(3 8(359 407 1907 1895 360 408 1908 1896))
(3 8(1895 1907 419 371 1896 1908 420 372))
(3 8(360 408 1908 1896 361 409 1909 1897))
(3 8(1896 1908 420 372 1897 1909 421 373))
(3 8(361 409 1909 1897 362 410 1910 1898))
(3 8(1897 1909 421 373 1898 1910 422 374))
(3 8(362 410 1910 1898 363 411 1911 1899))
(3 8(1898 1910 422 374 1899 1911 423 375))
(3 8(363 411 1911 1899 364 412 1912 1900))
(3 8(1899 1911 423 375 1900 1912 424 376))
(3 8(364 412 1912 1900 365 413 1913 1901))
(3 8(1900 1912 424 376 1901 1913 425 377))
(3 8(462 522 1926 1914 463 523 1927 1915))
(3 8(1914 1926 534 474 1915 1927 535 475))
(3 8(463 523 1927 1915 464 524 1928 1916))
(3 8(1915 1927 535 475 1916 1928 536 476))
(3 8(464 524 1928 1916 465 525 1929 1917))
(3 8(1916 1928 536 476 1917 1929 537 477))
(3 8(465 525 1929 1917 466 526 1930 1918))
(3 8(1917 1929 537 477 1918 1930 538 478))
(3 8(466 526 1930 1918 467 527 1931 1919))
(3 8(1918 1930 538 478 1919 1931 539 479))
(3 8(467 527 1931 1919 468 528 1932 1920))
(3 8(1919 1931 539 479 1920 1932 540 480))
(3 8(468 528 1932 1920 469 529 1933 1921))
(3 8(1920 1932 540 480 1921 1933 541 481))
(3 8(469 529 1933 1921 470 530 1934 1922))
(3 8(1921 1933 541 481 1922 1934 542 482))
(3 8(470 530 1934 1922 471 531 1935 1923))
(3 8(1922 1934 542 482 1923 1935 543 483))
(3 8(471 531 1935 1923 472 532 1936 1924))
(3 8(1923 1935 543 483 1924 1936 544 484))
(3 8(472 532 1936 1924 473 533 1937 1925))
(3 8(1924 1936 544 484 1925 1937 545 485))
(3 8(582 642 1950 1938 583 643 1951 1939))
(3 8(1938 1950 654 594 1939 1951 655 595))
(3 8(583 643 1951 1939 584 644 1952 1940))
(3 8(1939 1951 655 595 1940 1952 656 596))
(3 8(584 644 1952 1940 585 645 1953 1941))
(3 8(1940 1952 656 596 1941 1953 657 597))
(3 8(585 645 1953 1941 586 646 1954 1942))
(3 8(1941 1953 657 597 1942 1954 658 598))
(3 8(586 646 1954 1942 587 647 1955 1943))
(3 8(1942 1954 658 598 1943 1955 659 599))
(3 8(587 647 1955 1943 588 648 1956 1944))
(3 8(1943 1955 659 599 1944 1956 660 600))
(3 8(588 648 1956 1944 589 649 1957 1945))
(3 8(1944 1956 660 600 1945 1957 661 601))
(3 8(589 649 1957 1945 590 650 1958 1946))
(3 8(1945 1957 661 601 1946 1958 662 602))
(3 8(590 650 1958 1946 591 651 1959 1947))
(3 8(1946 1958 662 602 1947 1959 663 603))
(3 8(591 651 1959 1947 592 652 1960 1948))
(3 8(1947 1959 663 603 1948 1960 664 604))
(3 8(592 652 1960 1948 593 653 1961 1949))
(3 8(1948 1960 664 604 1949 1961 665 605))
(3 8(702 762 1974 1962 703 763 1975 1963))
(3 8(1962 1974 774 714 1963 1975 775 715))
(3 8(703 763 1975 1963 704 764 1976 1964))