/*---------------------------------------------------------------------------*\
| =========                 |                                                 |
| \\      /  F ield         | OpenFOAM: The Open Source CFD Toolbox           |
|  \\    /   O peration     | Version:  1.0                                   |
|   \\  /    A nd           | Web:      http://www.openfoam.org               |
|    \\/     M anipulation  |                                                 |
\*---------------------------------------------------------------------------*/

FoamFile
{
    version             1.0;
    format              ascii;
    
    root                "";
    case                "";
    instance            "";
    local               "";
    
    class               dictionary;
    object              icoFoamAutoMotion.cfg;
}

// * * * * * * * * * * * * * * * * * * * * * * * * * * * * * * * * * * * * * //

description         "Incompressible unsteady laminar flow code with mesh motion.";

executable          icoFoamAutoMotion;

parameters          
(
    "Root Path"
    "Case Name"
);

modules             
(
    FoamX.Modules.CaseEditor.CaseEditorModule
);

dictionaries        
(
    controlDict
    fvSchemes
    fvSolution
    tetFemSolution
    transportProperties
    motionProperties
);

fields
{
    include "$FOAMX_SYSTEM_CONFIG/types/geometricFields/pKinematic.cfg";
    include "$FOAMX_SYSTEM_CONFIG/types/geometricFields/U.cfg";
    include "$FOAMX_SYSTEM_CONFIG/types/geometricFields/motionU.cfg";
}

boundaryTypes
{
    fixedWall
    {
        displayName         "fixedWall";
        description         "Stationary wall over which mesh can slip";
        patchType           wall;
        U                   fixedValue;
        p                   zeroGradient;
        motionU             slip;
    }

    wall
    {
        displayName         "movingWall";
        description         "Moving wall where boundary motion is specified";
        patchType           wall;
        U                   fixedValue;
        p                   zeroGradient;
        motionU             fixedValue;
    }

    slip
    {
        displayName         "slip";
        description         "Slip boundary condition";
        patchType           patch;
        U                   slip;
        p                   slip;
        motionU             slip;
    }

    wallFunctions
    {
        displayName         "wallFunctions";
        description         "Wall functions boundary condition";
        patchType           wall;
        superType           wall;
        U                   fixedValue;
        p                   zeroGradient;
        motionU             slip;
    }

    inlet
    {
        displayName         "inlet";
        description         "Inlet boundary condition";
        patchType           patch;
        U                   fixedValue;
        p                   zeroGradient;
        motionU             fixedValue;
    }

    inletOutlet
    {
        displayName         "inletOutlet";
        description         "Inlet/outlet boundary condition";
        patchType           patch;
        superType           inlet;
        U                   fixedValue;
        p                   zeroGradient;
        motionU             fixedValue;
    }

    fluxOutlet
    {
        displayName         "fluxOutlet";
        description         "Flux/outlet boundary condition";
        patchType           patch;
        superType           outlet;
        U                   fixedValue;
        p                   fixedGradient;
        motionU             fixedValue;
    }

    outlet
    {
        displayName         "outlet";
        description         "Outlet boundary condition";
        patchType           patch;
        U                   zeroGradient;
        p                   fixedValue;
        motionU             fixedValue;
    }

    atmosphere
    {
        displayName         "atmosphere";
        description         "Atmosphere boundary condition";
        patchType           patch;
        U                   fluxCorrectedVelocity;
        p                   totalPressure;
        motionU             fixedValue;
    }
}

// ************************************************************************* //
