/*---------------------------------------------------------------------------*\
| =========                 |                                                 |
| \\      /  F ield         | OpenFOAM: The Open Source CFD Toolbox           |
|  \\    /   O peration     | Version:  1.2                                   |
|   \\  /    A nd           | Web:      http://www.openfoam.org               |
|    \\/     M anipulation  |                                                 |
\*---------------------------------------------------------------------------*/

// Field Dictionary

FoamFile
{
    version         2.0;
    format          ascii;

    root            "/home/dm2/henry/OpenFOAM/OpenFOAM-1.2/tutorialsTest/turbFoam";
    case            "cavity";
    instance        "0";
    local           "";

    class           volScalarField;
    object          nuTilda;
}

// * * * * * * * * * * * * * * * * * * * * * * * * * * * * * * * * * * * * * //


dimensions      [0 2 -1 0 0 0 0];

internalField   uniform 0;

boundaryField
{
    movingWall      
    {
        type            zeroGradient;
    }

    fixedWalls      
    {
        type            zeroGradient;
    }

    frontAndBack    
    {
        type            empty;
    }
}


// ************************************************************************* //
