/*---------------------------------------------------------------------------*\
| =========                 |                                                 |
| \\      /  F ield         | OpenFOAM: The Open Source CFD Toolbox           |
|  \\    /   O peration     | Version:  1.0                                   |
|   \\  /    A nd           | Web:      http://www.openfoam.org               |
|    \\/     M anipulation  |                                                 |
\*---------------------------------------------------------------------------*/

FoamFile
{
    version             1.0;
    format              ascii;

    root                "";
    case                "";
    instance            "";
    local               "";
    
    class               dictionary;
    object              tetFemSolution.cfg;
}

// * * * * * * * * * * * * * * * * * * * * * * * * * * * * * * * * * * * * * //

include "$FOAMX_SYSTEM_CONFIG/dictionaries/tetFemSolution/tetFemSolution.cfg";

entries
{
    solvers
    {
        type        dictionary;
        entries
        {
            U
            {
                include             "$FOAMX_SYSTEM_CONFIG/dictionaries/fvSolution/solvers/symmetricSparse.cfg";
                description         "Solver for the U equation";
                iconURL             "/FoamX/icons/small/maths/U.gif";
            }
        }
    }
}

include "defaults/tetFemSolution.def";

// ************************************************************************* //
