/*---------------------------------------------------------------------------*\
| =========                 |                                                 |
| \\      /  F ield         | OpenFOAM: The Open Source CFD Toolbox           |
|  \\    /   O peration     | Version:  1.3                                   |
|   \\  /    A nd           | Web:      http://www.openfoam.org               |
|    \\/     M anipulation  |                                                 |
\*---------------------------------------------------------------------------*/

FoamFile
{
    version         2.0;
    format          ascii;

    root            "";
    case            "";
    instance        "";
    local           "";

    class           dictionary;
    object          motionProperties;
}

// * * * * * * * * * * * * * * * * * * * * * * * * * * * * * * * * * * * * * //

dynamicFvMeshLib "libtetDecompositionMotionSolvers.so";
dynamicFvMesh dynamicMotionSolverFvMesh;

twoDMotion      yes;

solver          laplaceTetDecomposition;

diffusion       quadratic patchEnhanced;

frozenDiffusion off;

distancePatches 
(
    movingWall
    farFieldMoving
);


// ************************************************************************* //
