/*---------------------------------------------------------------------------*\
| =========                 |                                                 |
| \\      /  F ield         | OpenFOAM: The Open Source CFD Toolbox           |
|  \\    /   O peration     | Version:  1.0                                   |
|   \\  /    A nd           | Web:      http://www.openfoam.org               |
|    \\/     M anipulation  |                                                 |
\*---------------------------------------------------------------------------*/

FoamFile
{
    version 2.0;
    format ascii;

    root ".";
    case "elbow";
    instance "constant";
    local "polyMesh";

    class polyBoundaryMesh;
    object boundary;
}

// * * * * * * * * * * * * * * * * * * * * * * * * * * * * * * * * * * * * * //

6
(
wall-4
{
    type wall;
    physicalType wall;
    nFaces 100;
    startFace 1300;
}

velocity-inlet-5
{
    type patch;
    physicalType inlet;
    nFaces 8;
    startFace 1400;
}

velocity-inlet-6
{
    type patch;
    physicalType inlet;
    nFaces 4;
    startFace 1408;
}

pressure-outlet-7
{
    type patch;
    physicalType outlet;
    nFaces 8;
    startFace 1412;
}

wall-8
{
    type wall;
    physicalType wall;
    nFaces 34;
    startFace 1420;
}

frontAndBackPlanes
{
    type empty;
    physicalType empty;
    nFaces 1836;
    startFace 1454;
}
)

// ************************************************************************* //
